[H]c1c([H])c([H])c(N2C([H])([H])C([H])([H])N(C(=O)C([H])([H])Sc3nnc([H])n3-c3c([H])c([H])c([H])c([H])c3C([H])([H])[H])C([H])([H])C2([H])[H])c([H])c1[H]


 28 31  0  0  0  0  0  0  0  0999 V2000
   55.7764   -5.3464   -6.8146 C   0  0  0  0  0  0  0  0  0  0  0  0
   55.7064   -4.8319   -5.4328 C   0  0  0  0  0  0  0  0  0  0  0  0
   56.0143   -3.6409   -5.2060 O   0  0  0  0  0  0  0  0  0  0  0  0
   55.2976   -5.6586   -4.3623 N   0  0  0  0  0  0  0  0  0  0  0  0
   54.9629   -7.0266   -4.6173 C   0  0  0  0  0  0  0  0  0  0  0  0
   54.5189   -7.7693   -3.3717 C   0  0  0  0  0  0  0  0  0  0  0  0
   53.6707   -6.9487   -2.5406 N   0  0  0  0  0  0  0  0  0  0  0  0
   53.7839   -5.4913   -2.5334 C   0  0  0  0  0  0  0  0  0  0  0  0
   55.2045   -5.1546   -3.0085 C   0  0  0  0  0  0  0  0  0  0  0  0
   52.7135   -7.5564   -1.7076 C   0  0  0  0  0  0  0  0  0  0  0  0
   51.4116   -7.1236   -1.7049 C   0  0  0  0  0  0  0  0  0  0  0  0
   50.4962   -7.7407   -0.8630 C   0  0  0  0  0  0  0  0  0  0  0  0
   50.8584   -8.7780   -0.0286 C   0  0  0  0  0  0  0  0  0  0  0  0
   52.1739   -9.2179   -0.0295 C   0  0  0  0  0  0  0  0  0  0  0  0
   53.0813   -8.6072   -0.8630 C   0  0  0  0  0  0  0  0  0  0  0  0
   54.1312   -5.7740   -7.4581 S   0  0  0  0  0  0  0  0  0  0  0  0
   52.2562   -3.6915   -7.7810 N   0  0  0  0  0  0  0  0  0  0  0  0
   52.0260   -2.6549   -8.5920 C   0  0  0  0  0  0  0  0  0  0  0  0
   53.0074   -2.6417   -9.5044 N   0  0  0  0  0  0  0  0  0  0  0  0
   53.8117   -3.6368   -9.2609 N   0  0  0  0  0  0  0  0  0  0  0  0
   53.3667   -4.3077   -8.1916 C   0  0  0  0  0  0  0  0  0  0  0  0
   50.0522   -2.0620   -7.2015 C   0  0  0  0  0  0  0  0  0  0  0  0
   50.3679   -3.2664   -6.3792 C   0  0  0  0  0  0  0  0  0  0  0  0
   49.5798   -3.6133   -5.3033 C   0  0  0  0  0  0  0  0  0  0  0  0
   49.8971   -4.7416   -4.5547 C   0  0  0  0  0  0  0  0  0  0  0  0
   50.9801   -5.5408   -4.8446 C   0  0  0  0  0  0  0  0  0  0  0  0
   51.7711   -5.1982   -5.9191 C   0  0  0  0  0  0  0  0  0  0  0  0
   51.4515   -4.0657   -6.6691 C   0  0  0  0  0  0  0  0  0  0  0  0
 22 23  1  0  0  0
 23 24  2  0  0  0
 24 25  1  0  0  0
 25 26  2  0  0  0
 26 27  1  0  0  0
 27 28  2  0  0  0
 28 17  1  0  0  0
 17 18  1  0  0  0
 18 19  2  0  0  0
 19 20  1  0  0  0
 20 21  2  0  0  0
 21 16  1  0  0  0
 16  1  1  0  0  0
  1  2  1  0  0  0
  2  3  2  0  0  0
  2  4  1  0  0  0
  4  5  1  0  0  0
  5  6  1  0  0  0
  6  7  1  0  0  0
  7 10  1  0  0  0
 10 11  2  0  0  0
 11 12  1  0  0  0
 12 13  2  0  0  0
 13 14  1  0  0  0
 14 15  2  0  0  0
  7  8  1  0  0  0
  8  9  1  0  0  0
 28 23  1  0  0  0
 21 17  1  0  0  0
  9  4  1  0  0  0
 15 10  1  0  0  0
M  END
> <minimizedAffinity>
-9.26246

> <CNNscore>
0.6614922881

> <CNNaffinity>
6.9256310463

> <CNN_VS>
4.5812516212

> <CNNaffinity_variance>
0.3888620436

$$$$
[H]c1c([H])c([H])c(N2C([H])([H])C([H])([H])N(C(=O)C([H])([H])Sc3nnc([H])n3-c3c([H])c([H])c([H])c([H])c3C([H])([H])[H])C([H])([H])C2([H])[H])c([H])c1[H]


 28 31  0  0  0  0  0  0  0  0999 V2000
   51.7859   -5.1064   -2.3578 C   0  0  0  0  0  0  0  0  0  0  0  0
   52.4197   -6.2132   -1.6147 C   0  0  0  0  0  0  0  0  0  0  0  0
   51.7039   -7.1250   -1.1449 O   0  0  0  0  0  0  0  0  0  0  0  0
   53.8190   -6.2624   -1.4250 N   0  0  0  0  0  0  0  0  0  0  0  0
   54.6377   -5.2102   -1.9459 C   0  0  0  0  0  0  0  0  0  0  0  0
   56.1157   -5.4247   -1.6824 C   0  0  0  0  0  0  0  0  0  0  0  0
   56.4909   -6.8063   -1.8667 N   0  0  0  0  0  0  0  0  0  0  0  0
   55.5360   -7.8937   -1.6599 C   0  0  0  0  0  0  0  0  0  0  0  0
   54.4498   -7.3564   -0.7173 C   0  0  0  0  0  0  0  0  0  0  0  0
   57.8071   -7.1259   -2.2471 C   0  0  0  0  0  0  0  0  0  0  0  0
   58.0987   -7.4643   -3.5443 C   0  0  0  0  0  0  0  0  0  0  0  0
   59.4072   -7.7829   -3.8818 C   0  0  0  0  0  0  0  0  0  0  0  0
   60.4238   -7.7684   -2.9492 C   0  0  0  0  0  0  0  0  0  0  0  0
   60.1321   -7.4262   -1.6370 C   0  0  0  0  0  0  0  0  0  0  0  0
   58.8363   -7.1107   -1.3019 C   0  0  0  0  0  0  0  0  0  0  0  0
   50.6311   -5.7179   -3.6212 S   0  0  0  0  0  0  0  0  0  0  0  0
   49.9251   -3.6767   -5.4355 N   0  0  0  0  0  0  0  0  0  0  0  0
   49.0018   -2.7207   -5.5727 C   0  0  0  0  0  0  0  0  0  0  0  0
   48.1916   -2.7983   -4.5082 N   0  0  0  0  0  0  0  0  0  0  0  0
   48.6048   -3.7689   -3.7441 N   0  0  0  0  0  0  0  0  0  0  0  0
   49.6842   -4.3334   -4.2988 C   0  0  0  0  0  0  0  0  0  0  0  0
   50.3292   -1.8138   -7.4885 C   0  0  0  0  0  0  0  0  0  0  0  0
   51.1812   -3.0323   -7.3638 C   0  0  0  0  0  0  0  0  0  0  0  0
   52.1973   -3.2784   -8.2616 C   0  0  0  0  0  0  0  0  0  0  0  0
   52.9764   -4.4219   -8.1209 C   0  0  0  0  0  0  0  0  0  0  0  0
   52.7755   -5.3335   -7.1088 C   0  0  0  0  0  0  0  0  0  0  0  0
   51.7610   -5.0921   -6.2089 C   0  0  0  0  0  0  0  0  0  0  0  0
   50.9801   -3.9444   -6.3515 C   0  0  0  0  0  0  0  0  0  0  0  0
 22 23  1  0  0  0
 23 24  2  0  0  0
 24 25  1  0  0  0
 25 26  2  0  0  0
 26 27  1  0  0  0
 27 28  2  0  0  0
 28 17  1  0  0  0
 17 18  1  0  0  0
 18 19  2  0  0  0
 19 20  1  0  0  0
 20 21  2  0  0  0
 21 16  1  0  0  0
 16  1  1  0  0  0
  1  2  1  0  0  0
  2  3  2  0  0  0
  2  4  1  0  0  0
  4  5  1  0  0  0
  5  6  1  0  0  0
  6  7  1  0  0  0
  7 10  1  0  0  0
 10 11  2  0  0  0
 11 12  1  0  0  0
 12 13  2  0  0  0
 13 14  1  0  0  0
 14 15  2  0  0  0
  7  8  1  0  0  0
  8  9  1  0  0  0
 28 23  1  0  0  0
 21 17  1  0  0  0
  9  4  1  0  0  0
 15 10  1  0  0  0
M  END
> <minimizedAffinity>
-8.81955

> <CNNscore>
0.5360484123

> <CNNaffinity>
6.5839118958

> <CNN_VS>
3.5292954445

> <CNNaffinity_variance>
0.1010700241

$$$$
[H]c1c([H])c([H])c(N2C([H])([H])C([H])([H])N(C(=O)C([H])([H])Sc3nnc([H])n3-c3c([H])c([H])c([H])c([H])c3C([H])([H])[H])C([H])([H])C2([H])[H])c([H])c1[H]


 28 31  0  0  0  0  0  0  0  0999 V2000
   54.7442   -5.7581   -5.8572 C   0  0  0  0  0  0  0  0  0  0  0  0
   54.4320   -6.1365   -4.4650 C   0  0  0  0  0  0  0  0  0  0  0  0
   53.2374   -6.2755   -4.1209 O   0  0  0  0  0  0  0  0  0  0  0  0
   55.4564   -6.3453   -3.5145 N   0  0  0  0  0  0  0  0  0  0  0  0
   56.8229   -6.1686   -3.9018 C   0  0  0  0  0  0  0  0  0  0  0  0
   57.7987   -6.4564   -2.7771 C   0  0  0  0  0  0  0  0  0  0  0  0
   57.3966   -7.6114   -2.0104 N   0  0  0  0  0  0  0  0  0  0  0  0
   55.9927   -8.0009   -1.8910 C   0  0  0  0  0  0  0  0  0  0  0  0
   55.1587   -6.7390   -2.1537 C   0  0  0  0  0  0  0  0  0  0  0  0
   58.3707   -8.3837   -1.3515 C   0  0  0  0  0  0  0  0  0  0  0  0
   59.5513   -7.8192   -0.9395 C   0  0  0  0  0  0  0  0  0  0  0  0
   60.4935   -8.6139   -0.3007 C   0  0  0  0  0  0  0  0  0  0  0  0
   60.2763   -9.9562   -0.0675 C   0  0  0  0  0  0  0  0  0  0  0  0
   59.0833  -10.5296   -0.4825 C   0  0  0  0  0  0  0  0  0  0  0  0
   58.1495   -9.7432   -1.1155 C   0  0  0  0  0  0  0  0  0  0  0  0
   53.3290   -6.0348   -6.9638 S   0  0  0  0  0  0  0  0  0  0  0  0
   52.0438   -3.6464   -7.7387 N   0  0  0  0  0  0  0  0  0  0  0  0
   52.1538   -2.6955   -8.6708 C   0  0  0  0  0  0  0  0  0  0  0  0
   53.2040   -3.0153   -9.4393 N   0  0  0  0  0  0  0  0  0  0  0  0
   53.7199   -4.1250   -8.9934 N   0  0  0  0  0  0  0  0  0  0  0  0
   53.0158   -4.5401   -7.9335 C   0  0  0  0  0  0  0  0  0  0  0  0
   50.1920   -1.5454   -7.6679 C   0  0  0  0  0  0  0  0  0  0  0  0
   50.1461   -2.6577   -6.6745 C   0  0  0  0  0  0  0  0  0  0  0  0
   49.1859   -2.6828   -5.6863 C   0  0  0  0  0  0  0  0  0  0  0  0
   49.1663   -3.7324   -4.7740 C   0  0  0  0  0  0  0  0  0  0  0  0
   50.0772   -4.7641   -4.8141 C   0  0  0  0  0  0  0  0  0  0  0  0
   51.0391   -4.7434   -5.7998 C   0  0  0  0  0  0  0  0  0  0  0  0
   51.0576   -3.6896   -6.7144 C   0  0  0  0  0  0  0  0  0  0  0  0
 22 23  1  0  0  0
 23 24  2  0  0  0
 24 25  1  0  0  0
 25 26  2  0  0  0
 26 27  1  0  0  0
 27 28  2  0  0  0
 28 17  1  0  0  0
 17 18  1  0  0  0
 18 19  2  0  0  0
 19 20  1  0  0  0
 20 21  2  0  0  0
 21 16  1  0  0  0
 16  1  1  0  0  0
  1  2  1  0  0  0
  2  3  2  0  0  0
  2  4  1  0  0  0
  4  5  1  0  0  0
  5  6  1  0  0  0
  6  7  1  0  0  0
  7 10  1  0  0  0
 10 11  2  0  0  0
 11 12  1  0  0  0
 12 13  2  0  0  0
 13 14  1  0  0  0
 14 15  2  0  0  0
  7  8  1  0  0  0
  8  9  1  0  0  0
 28 23  1  0  0  0
 21 17  1  0  0  0
  9  4  1  0  0  0
 15 10  1  0  0  0
M  END
> <minimizedAffinity>
-8.58459

> <CNNscore>
0.4938311875

> <CNNaffinity>
6.2675914764

> <CNN_VS>
3.0951321125

> <CNNaffinity_variance>
0.3826888204

$$$$
[H]c1c([H])c([H])c(N2C([H])([H])C([H])([H])N(C(=O)C([H])([H])Sc3nnc([H])n3-c3c([H])c([H])c([H])c([H])c3C([H])([H])[H])C([H])([H])C2([H])[H])c([H])c1[H]


 28 31  0  0  0  0  0  0  0  0999 V2000
   55.4796   -6.5447   -6.0296 C   0  0  0  0  0  0  0  0  0  0  0  0
   54.7057   -6.6815   -4.7801 C   0  0  0  0  0  0  0  0  0  0  0  0
   55.2996   -6.9833   -3.7214 O   0  0  0  0  0  0  0  0  0  0  0  0
   53.3078   -6.4773   -4.7573 N   0  0  0  0  0  0  0  0  0  0  0  0
   52.6240   -6.1503   -5.9715 C   0  0  0  0  0  0  0  0  0  0  0  0
   51.1357   -5.9369   -5.7734 C   0  0  0  0  0  0  0  0  0  0  0  0
   50.8629   -5.2075   -4.5580 N   0  0  0  0  0  0  0  0  0  0  0  0
   51.7615   -5.2733   -3.4069 C   0  0  0  0  0  0  0  0  0  0  0  0
   52.5458   -6.5872   -3.5314 C   0  0  0  0  0  0  0  0  0  0  0  0
   49.7027   -4.4171   -4.4655 C   0  0  0  0  0  0  0  0  0  0  0  0
   48.6933   -4.7534   -3.5992 C   0  0  0  0  0  0  0  0  0  0  0  0
   47.5587   -3.9553   -3.5412 C   0  0  0  0  0  0  0  0  0  0  0  0
   47.4173   -2.8323   -4.3300 C   0  0  0  0  0  0  0  0  0  0  0  0
   48.4364   -2.4896   -5.2064 C   0  0  0  0  0  0  0  0  0  0  0  0
   49.5604   -3.2796   -5.2647 C   0  0  0  0  0  0  0  0  0  0  0  0
   55.9143   -4.8122   -6.3663 S   0  0  0  0  0  0  0  0  0  0  0  0
   55.6385   -4.2695   -9.1205 N   0  0  0  0  0  0  0  0  0  0  0  0
   54.7256   -3.7900   -9.9702 C   0  0  0  0  0  0  0  0  0  0  0  0
   53.6326   -3.4979   -9.2521 N   0  0  0  0  0  0  0  0  0  0  0  0
   53.8679   -3.7882   -8.0043 N   0  0  0  0  0  0  0  0  0  0  0  0
   55.1114   -4.2711   -7.8944 C   0  0  0  0  0  0  0  0  0  0  0  0
   56.3335   -4.1469  -11.8318 C   0  0  0  0  0  0  0  0  0  0  0  0
   57.2919   -4.6486  -10.8041 C   0  0  0  0  0  0  0  0  0  0  0  0
   58.5543   -5.0700  -11.1617 C   0  0  0  0  0  0  0  0  0  0  0  0
   59.4273   -5.5322  -10.1827 C   0  0  0  0  0  0  0  0  0  0  0  0
   59.0821   -5.5885   -8.8510 C   0  0  0  0  0  0  0  0  0  0  0  0
   57.8212   -5.1686   -8.4885 C   0  0  0  0  0  0  0  0  0  0  0  0
   56.9464   -4.7052   -9.4719 C   0  0  0  0  0  0  0  0  0  0  0  0
 22 23  1  0  0  0
 23 24  2  0  0  0
 24 25  1  0  0  0
 25 26  2  0  0  0
 26 27  1  0  0  0
 27 28  2  0  0  0
 28 17  1  0  0  0
 17 18  1  0  0  0
 18 19  2  0  0  0
 19 20  1  0  0  0
 20 21  2  0  0  0
 21 16  1  0  0  0
 16  1  1  0  0  0
  1  2  1  0  0  0
  2  3  2  0  0  0
  2  4  1  0  0  0
  4  5  1  0  0  0
  5  6  1  0  0  0
  6  7  1  0  0  0
  7 10  1  0  0  0
 10 11  2  0  0  0
 11 12  1  0  0  0
 12 13  2  0  0  0
 13 14  1  0  0  0
 14 15  2  0  0  0
  7  8  1  0  0  0
  8  9  1  0  0  0
 28 23  1  0  0  0
 21 17  1  0  0  0
  9  4  1  0  0  0
 15 10  1  0  0  0
M  END
> <minimizedAffinity>
-8.60162

> <CNNscore>
0.2950431705

> <CNNaffinity>
6.4976015091

> <CNN_VS>
1.9170728922

> <CNNaffinity_variance>
0.2123375833

$$$$
[H]c1c([H])c([H])c(N2C([H])([H])C([H])([H])N(C(=O)C([H])([H])Sc3nnc([H])n3-c3c([H])c([H])c([H])c([H])c3C([H])([H])[H])C([H])([H])C2([H])[H])c([H])c1[H]


 28 31  0  0  0  0  0  0  0  0999 V2000
   56.2202   -5.1825   -5.5751 C   0  0  0  0  0  0  0  0  0  0  0  0
   55.9647   -4.9265   -4.1440 C   0  0  0  0  0  0  0  0  0  0  0  0
   56.3045   -3.8298   -3.6475 O   0  0  0  0  0  0  0  0  0  0  0  0
   55.3434   -5.8959   -3.3252 N   0  0  0  0  0  0  0  0  0  0  0  0
   54.9710   -7.1584   -3.8874 C   0  0  0  0  0  0  0  0  0  0  0  0
   54.2924   -8.0745   -2.8872 C   0  0  0  0  0  0  0  0  0  0  0  0
   53.3752   -7.3482   -2.0419 N   0  0  0  0  0  0  0  0  0  0  0  0
   53.5736   -5.9330   -1.7343 C   0  0  0  0  0  0  0  0  0  0  0  0
   55.0690   -5.6430   -1.9265 C   0  0  0  0  0  0  0  0  0  0  0  0
   52.2638   -8.0106   -1.4891 C   0  0  0  0  0  0  0  0  0  0  0  0
   51.1957   -7.3003   -1.0027 C   0  0  0  0  0  0  0  0  0  0  0  0
   50.1202   -7.9871   -0.4557 C   0  0  0  0  0  0  0  0  0  0  0  0
   50.0946   -9.3648   -0.3877 C   0  0  0  0  0  0  0  0  0  0  0  0
   51.1729  -10.0857   -0.8792 C   0  0  0  0  0  0  0  0  0  0  0  0
   52.2387   -9.4062   -1.4210 C   0  0  0  0  0  0  0  0  0  0  0  0
   56.1842   -3.6491   -6.5505 S   0  0  0  0  0  0  0  0  0  0  0  0
   54.8640   -4.0175   -9.0158 N   0  0  0  0  0  0  0  0  0  0  0  0
   55.1458   -4.3876  -10.2684 C   0  0  0  0  0  0  0  0  0  0  0  0
   56.4596   -4.6470  -10.3174 N   0  0  0  0  0  0  0  0  0  0  0  0
   56.9658   -4.4431   -9.1347 N   0  0  0  0  0  0  0  0  0  0  0  0
   55.9926   -4.0499   -8.3041 C   0  0  0  0  0  0  0  0  0  0  0  0
   53.4940   -5.9162   -7.4774 C   0  0  0  0  0  0  0  0  0  0  0  0
   52.8994   -4.5809   -7.7770 C   0  0  0  0  0  0  0  0  0  0  0  0
   51.6506   -4.2416   -7.3034 C   0  0  0  0  0  0  0  0  0  0  0  0
   51.1211   -2.9896   -7.5975 C   0  0  0  0  0  0  0  0  0  0  0  0
   51.7992   -2.0588   -8.3521 C   0  0  0  0  0  0  0  0  0  0  0  0
   53.0478   -2.3932   -8.8280 C   0  0  0  0  0  0  0  0  0  0  0  0
   53.5776   -3.6498   -8.5322 C   0  0  0  0  0  0  0  0  0  0  0  0
 22 23  1  0  0  0
 23 24  2  0  0  0
 24 25  1  0  0  0
 25 26  2  0  0  0
 26 27  1  0  0  0
 27 28  2  0  0  0
 28 17  1  0  0  0
 17 18  1  0  0  0
 18 19  2  0  0  0
 19 20  1  0  0  0
 20 21  2  0  0  0
 21 16  1  0  0  0
 16  1  1  0  0  0
  1  2  1  0  0  0
  2  3  2  0  0  0
  2  4  1  0  0  0
  4  5  1  0  0  0
  5  6  1  0  0  0
  6  7  1  0  0  0
  7 10  1  0  0  0
 10 11  2  0  0  0
 11 12  1  0  0  0
 12 13  2  0  0  0
 13 14  1  0  0  0
 14 15  2  0  0  0
  7  8  1  0  0  0
  8  9  1  0  0  0
 28 23  1  0  0  0
 21 17  1  0  0  0
  9  4  1  0  0  0
 15 10  1  0  0  0
M  END
> <minimizedAffinity>
-8.57852

> <CNNscore>
0.2362829000

> <CNNaffinity>
6.1902079582

> <CNN_VS>
1.4626402855

> <CNNaffinity_variance>
0.2215786427

$$$$
[H]c1c([H])c([H])c(N2C([H])([H])C([H])([H])N(C(=O)C([H])([H])Sc3nnc([H])n3-c3c([H])c([H])c([H])c([H])c3C([H])([H])[H])C([H])([H])C2([H])[H])c([H])c1[H]


 28 31  0  0  0  0  0  0  0  0999 V2000
   51.8445   -6.5726   -5.5792 C   0  0  0  0  0  0  0  0  0  0  0  0
   52.2961   -5.8733   -4.3603 C   0  0  0  0  0  0  0  0  0  0  0  0
   51.4899   -5.1503   -3.7342 O   0  0  0  0  0  0  0  0  0  0  0  0
   53.6209   -6.0057   -3.8871 N   0  0  0  0  0  0  0  0  0  0  0  0
   54.5498   -6.8177   -4.6126 C   0  0  0  0  0  0  0  0  0  0  0  0
   55.9179   -6.8781   -3.9609 C   0  0  0  0  0  0  0  0  0  0  0  0
   55.8157   -6.9841   -2.5250 N   0  0  0  0  0  0  0  0  0  0  0  0
   54.6712   -6.4403   -1.7961 C   0  0  0  0  0  0  0  0  0  0  0  0
   54.0644   -5.3413   -2.6799 C   0  0  0  0  0  0  0  0  0  0  0  0
   56.8406   -7.6176   -1.7986 C   0  0  0  0  0  0  0  0  0  0  0  0
   57.4164   -7.0009   -0.7167 C   0  0  0  0  0  0  0  0  0  0  0  0
   58.4317   -7.6520   -0.0291 C   0  0  0  0  0  0  0  0  0  0  0  0
   58.8783   -8.9028   -0.4026 C   0  0  0  0  0  0  0  0  0  0  0  0
   58.2976   -9.5289   -1.4957 C   0  0  0  0  0  0  0  0  0  0  0  0
   57.2920   -8.8847   -2.1774 C   0  0  0  0  0  0  0  0  0  0  0  0
   52.8617   -6.1373   -7.0213 S   0  0  0  0  0  0  0  0  0  0  0  0
   53.2351   -3.6538   -8.3056 N   0  0  0  0  0  0  0  0  0  0  0  0
   52.5987   -2.4890   -8.4590 C   0  0  0  0  0  0  0  0  0  0  0  0
   51.4428   -2.5788   -7.7869 N   0  0  0  0  0  0  0  0  0  0  0  0
   51.3735   -3.7588   -7.2397 N   0  0  0  0  0  0  0  0  0  0  0  0
   52.4780   -4.4494   -7.5472 C   0  0  0  0  0  0  0  0  0  0  0  0
   55.3652   -3.9750   -6.5146 C   0  0  0  0  0  0  0  0  0  0  0  0
   55.5530   -4.1399   -7.9856 C   0  0  0  0  0  0  0  0  0  0  0  0
   56.7880   -4.4558   -8.5088 C   0  0  0  0  0  0  0  0  0  0  0  0
   56.9341   -4.6042   -9.8839 C   0  0  0  0  0  0  0  0  0  0  0  0
   55.8837   -4.4476  -10.7602 C   0  0  0  0  0  0  0  0  0  0  0  0
   54.6471   -4.1315  -10.2421 C   0  0  0  0  0  0  0  0  0  0  0  0
   54.5022   -3.9829   -8.8622 C   0  0  0  0  0  0  0  0  0  0  0  0
 22 23  1  0  0  0
 23 24  2  0  0  0
 24 25  1  0  0  0
 25 26  2  0  0  0
 26 27  1  0  0  0
 27 28  2  0  0  0
 28 17  1  0  0  0
 17 18  1  0  0  0
 18 19  2  0  0  0
 19 20  1  0  0  0
 20 21  2  0  0  0
 21 16  1  0  0  0
 16  1  1  0  0  0
  1  2  1  0  0  0
  2  3  2  0  0  0
  2  4  1  0  0  0
  4  5  1  0  0  0
  5  6  1  0  0  0
  6  7  1  0  0  0
  7 10  1  0  0  0
 10 11  2  0  0  0
 11 12  1  0  0  0
 12 13  2  0  0  0
 13 14  1  0  0  0
 14 15  2  0  0  0
  7  8  1  0  0  0
  8  9  1  0  0  0
 28 23  1  0  0  0
 21 17  1  0  0  0
  9  4  1  0  0  0
 15 10  1  0  0  0
M  END
> <minimizedAffinity>
-7.21559

> <CNNscore>
0.2085068673

> <CNNaffinity>
6.3102216721

> <CNN_VS>
1.3157246113

> <CNNaffinity_variance>
0.3953251541

$$$$
[H]c1c([H])c([H])c(N2C([H])([H])C([H])([H])N(C(=O)C([H])([H])Sc3nnc([H])n3-c3c([H])c([H])c([H])c([H])c3C([H])([H])[H])C([H])([H])C2([H])[H])c([H])c1[H]


 28 31  0  0  0  0  0  0  0  0999 V2000
   56.1600   -6.0370   -5.4859 C   0  0  0  0  0  0  0  0  0  0  0  0
   56.1137   -6.3539   -4.0450 C   0  0  0  0  0  0  0  0  0  0  0  0
   55.1007   -6.0412   -3.3810 O   0  0  0  0  0  0  0  0  0  0  0  0
   57.1909   -7.0042   -3.4022 N   0  0  0  0  0  0  0  0  0  0  0  0
   58.3583   -7.3460   -4.1565 C   0  0  0  0  0  0  0  0  0  0  0  0
   59.4089   -8.0613   -3.3292 C   0  0  0  0  0  0  0  0  0  0  0  0
   58.8118   -9.0173   -2.4275 N   0  0  0  0  0  0  0  0  0  0  0  0
   57.4562   -8.8394   -1.9102 C   0  0  0  0  0  0  0  0  0  0  0  0
   57.1429   -7.3388   -1.9946 C   0  0  0  0  0  0  0  0  0  0  0  0
   59.5462  -10.1475   -2.0242 C   0  0  0  0  0  0  0  0  0  0  0  0
   59.0345  -11.0217   -1.0989 C   0  0  0  0  0  0  0  0  0  0  0  0
   59.7913  -12.1214   -0.7175 C   0  0  0  0  0  0  0  0  0  0  0  0
   61.0442  -12.3608   -1.2432 C   0  0  0  0  0  0  0  0  0  0  0  0
   61.5640  -11.4788   -2.1792 C   0  0  0  0  0  0  0  0  0  0  0  0
   60.8151  -10.3892   -2.5574 C   0  0  0  0  0  0  0  0  0  0  0  0
   55.1762   -4.5610   -5.8827 S   0  0  0  0  0  0  0  0  0  0  0  0
   53.9231   -4.1647   -8.3786 N   0  0  0  0  0  0  0  0  0  0  0  0
   54.2450   -4.1099   -9.6743 C   0  0  0  0  0  0  0  0  0  0  0  0
   55.5682   -4.3030   -9.7611 N   0  0  0  0  0  0  0  0  0  0  0  0
   56.0412   -4.4709   -8.5592 N   0  0  0  0  0  0  0  0  0  0  0  0
   55.0368   -4.3895   -7.6782 C   0  0  0  0  0  0  0  0  0  0  0  0
   52.6957   -6.4508   -7.3222 C   0  0  0  0  0  0  0  0  0  0  0  0
   52.0059   -5.1278   -7.3260 C   0  0  0  0  0  0  0  0  0  0  0  0
   50.7363   -4.9919   -6.8076 C   0  0  0  0  0  0  0  0  0  0  0  0
   50.1174   -3.7465   -6.8235 C   0  0  0  0  0  0  0  0  0  0  0  0
   50.7255   -2.6252   -7.3418 C   0  0  0  0  0  0  0  0  0  0  0  0
   51.9945   -2.7559   -7.8614 C   0  0  0  0  0  0  0  0  0  0  0  0
   52.6141   -4.0061   -7.8447 C   0  0  0  0  0  0  0  0  0  0  0  0
 22 23  1  0  0  0
 23 24  2  0  0  0
 24 25  1  0  0  0
 25 26  2  0  0  0
 26 27  1  0  0  0
 27 28  2  0  0  0
 28 17  1  0  0  0
 17 18  1  0  0  0
 18 19  2  0  0  0
 19 20  1  0  0  0
 20 21  2  0  0  0
 21 16  1  0  0  0
 16  1  1  0  0  0
  1  2  1  0  0  0
  2  3  2  0  0  0
  2  4  1  0  0  0
  4  5  1  0  0  0
  5  6  1  0  0  0
  6  7  1  0  0  0
  7 10  1  0  0  0
 10 11  2  0  0  0
 11 12  1  0  0  0
 12 13  2  0  0  0
 13 14  1  0  0  0
 14 15  2  0  0  0
  7  8  1  0  0  0
  8  9  1  0  0  0
 28 23  1  0  0  0
 21 17  1  0  0  0
  9  4  1  0  0  0
 15 10  1  0  0  0
M  END
> <minimizedAffinity>
-7.18496

> <CNNscore>
0.1632896364

> <CNNaffinity>
5.5503797531

> <CNN_VS>
0.9063194990

> <CNNaffinity_variance>
0.2435920537

$$$$
[H]c1c([H])c([H])c(N2C([H])([H])C([H])([H])N(C(=O)C([H])([H])Sc3nnc([H])n3-c3c([H])c([H])c([H])c([H])c3C([H])([H])[H])C([H])([H])C2([H])[H])c([H])c1[H]


 28 31  0  0  0  0  0  0  0  0999 V2000
   59.2687   -5.9159   -8.7713 C   0  0  0  0  0  0  0  0  0  0  0  0
   58.3572   -5.2563   -9.7268 C   0  0  0  0  0  0  0  0  0  0  0  0
   58.5763   -5.3599  -10.9540 O   0  0  0  0  0  0  0  0  0  0  0  0
   57.2422   -4.5113   -9.2818 N   0  0  0  0  0  0  0  0  0  0  0  0
   57.0007   -4.3762   -7.8774 C   0  0  0  0  0  0  0  0  0  0  0  0
   55.7532   -3.5721   -7.5662 C   0  0  0  0  0  0  0  0  0  0  0  0
   54.6747   -3.8982   -8.4684 N   0  0  0  0  0  0  0  0  0  0  0  0
   54.9296   -4.3740   -9.8269 C   0  0  0  0  0  0  0  0  0  0  0  0
   56.3312   -3.8810  -10.2135 C   0  0  0  0  0  0  0  0  0  0  0  0
   53.3418   -3.7508   -8.0428 C   0  0  0  0  0  0  0  0  0  0  0  0
   52.5697   -2.7148   -8.5041 C   0  0  0  0  0  0  0  0  0  0  0  0
   51.2613   -2.5952   -8.0553 C   0  0  0  0  0  0  0  0  0  0  0  0
   50.7146   -3.4895   -7.1583 C   0  0  0  0  0  0  0  0  0  0  0  0
   51.4927   -4.5383   -6.6906 C   0  0  0  0  0  0  0  0  0  0  0  0
   52.7888   -4.6574   -7.1345 C   0  0  0  0  0  0  0  0  0  0  0  0
   60.4621   -6.9963   -9.6153 S   0  0  0  0  0  0  0  0  0  0  0  0
   62.7013   -7.9303   -8.1763 N   0  0  0  0  0  0  0  0  0  0  0  0
   63.8397   -7.4588   -7.6597 C   0  0  0  0  0  0  0  0  0  0  0  0
   63.8868   -6.1487   -7.9374 N   0  0  0  0  0  0  0  0  0  0  0  0
   62.8132   -5.8281   -8.6016 N   0  0  0  0  0  0  0  0  0  0  0  0
   62.0567   -6.9202   -8.7643 C   0  0  0  0  0  0  0  0  0  0  0  0
   63.3739   -9.5947  -10.3272 C   0  0  0  0  0  0  0  0  0  0  0  0
   62.5870  -10.1027   -9.1657 C   0  0  0  0  0  0  0  0  0  0  0  0
   62.1648  -11.4136   -9.1180 C   0  0  0  0  0  0  0  0  0  0  0  0
   61.4334  -11.8604   -8.0227 C   0  0  0  0  0  0  0  0  0  0  0  0
   61.1071  -11.0393   -6.9667 C   0  0  0  0  0  0  0  0  0  0  0  0
   61.5267   -9.7280   -7.0098 C   0  0  0  0  0  0  0  0  0  0  0  0
   62.2604   -9.2812   -8.1095 C   0  0  0  0  0  0  0  0  0  0  0  0
 22 23  1  0  0  0
 23 24  2  0  0  0
 24 25  1  0  0  0
 25 26  2  0  0  0
 26 27  1  0  0  0
 27 28  2  0  0  0
 28 17  1  0  0  0
 17 18  1  0  0  0
 18 19  2  0  0  0
 19 20  1  0  0  0
 20 21  2  0  0  0
 21 16  1  0  0  0
 16  1  1  0  0  0
  1  2  1  0  0  0
  2  3  2  0  0  0
  2  4  1  0  0  0
  4  5  1  0  0  0
  5  6  1  0  0  0
  6  7  1  0  0  0
  7 10  1  0  0  0
 10 11  2  0  0  0
 11 12  1  0  0  0
 12 13  2  0  0  0
 13 14  1  0  0  0
 14 15  2  0  0  0
  7  8  1  0  0  0
  8  9  1  0  0  0
 28 23  1  0  0  0
 21 17  1  0  0  0
  9  4  1  0  0  0
 15 10  1  0  0  0
M  END
> <minimizedAffinity>
-7.65071

> <CNNscore>
0.1607027054

> <CNNaffinity>
5.1934356689

> <CNN_VS>
0.8345991373

> <CNNaffinity_variance>
0.2120885402

$$$$
[H]c1c([H])c([H])c(N2C([H])([H])C([H])([H])N(C(=O)C([H])([H])Sc3nnc([H])n3-c3c([H])c([H])c([H])c([H])c3C([H])([H])[H])C([H])([H])C2([H])[H])c([H])c1[H]


 28 31  0  0  0  0  0  0  0  0999 V2000
   55.8595   -6.2447   -5.1009 C   0  0  0  0  0  0  0  0  0  0  0  0
   55.9173   -7.3698   -4.1472 C   0  0  0  0  0  0  0  0  0  0  0  0
   55.0710   -8.2872   -4.2297 O   0  0  0  0  0  0  0  0  0  0  0  0
   56.9104   -7.4305   -3.1440 N   0  0  0  0  0  0  0  0  0  0  0  0
   57.8682   -6.3723   -3.0365 C   0  0  0  0  0  0  0  0  0  0  0  0
   58.8801   -6.6002   -1.9301 C   0  0  0  0  0  0  0  0  0  0  0  0
   59.3011   -7.9798   -1.8740 N   0  0  0  0  0  0  0  0  0  0  0  0
   58.4273   -9.0660   -2.3141 C   0  0  0  0  0  0  0  0  0  0  0  0
   56.9873   -8.5422   -2.2200 C   0  0  0  0  0  0  0  0  0  0  0  0
   60.5786   -8.2987   -1.3783 C   0  0  0  0  0  0  0  0  0  0  0  0
   61.1791   -9.4886   -1.7036 C   0  0  0  0  0  0  0  0  0  0  0  0
   62.4365   -9.7739   -1.1886 C   0  0  0  0  0  0  0  0  0  0  0  0
   63.1002   -8.8940   -0.3587 C   0  0  0  0  0  0  0  0  0  0  0  0
   62.4957   -7.6900   -0.0285 C   0  0  0  0  0  0  0  0  0  0  0  0
   61.2503   -7.4067   -0.5381 C   0  0  0  0  0  0  0  0  0  0  0  0
   54.1472   -5.8201   -5.5385 S   0  0  0  0  0  0  0  0  0  0  0  0
   53.1165   -4.3170   -7.6914 N   0  0  0  0  0  0  0  0  0  0  0  0
   53.4848   -3.9132   -8.9106 C   0  0  0  0  0  0  0  0  0  0  0  0
   54.7202   -4.3853   -9.1267 N   0  0  0  0  0  0  0  0  0  0  0  0
   55.0961   -5.0562   -8.0754 N   0  0  0  0  0  0  0  0  0  0  0  0
   54.1149   -5.0296   -7.1654 C   0  0  0  0  0  0  0  0  0  0  0  0
   51.7870   -1.9934   -8.5173 C   0  0  0  0  0  0  0  0  0  0  0  0
   51.2150   -2.8867   -7.4679 C   0  0  0  0  0  0  0  0  0  0  0  0
   50.0088   -2.5918   -6.8701 C   0  0  0  0  0  0  0  0  0  0  0  0
   49.4989   -3.4427   -5.8953 C   0  0  0  0  0  0  0  0  0  0  0  0
   50.1549   -4.5848   -5.4942 C   0  0  0  0  0  0  0  0  0  0  0  0
   51.3610   -4.8840   -6.0887 C   0  0  0  0  0  0  0  0  0  0  0  0
   51.8713   -4.0292   -7.0665 C   0  0  0  0  0  0  0  0  0  0  0  0
 22 23  1  0  0  0
 23 24  2  0  0  0
 24 25  1  0  0  0
 25 26  2  0  0  0
 26 27  1  0  0  0
 27 28  2  0  0  0
 28 17  1  0  0  0
 17 18  1  0  0  0
 18 19  2  0  0  0
 19 20  1  0  0  0
 20 21  2  0  0  0
 21 16  1  0  0  0
 16  1  1  0  0  0
  1  2  1  0  0  0
  2  3  2  0  0  0
  2  4  1  0  0  0
  4  5  1  0  0  0
  5  6  1  0  0  0
  6  7  1  0  0  0
  7 10  1  0  0  0
 10 11  2  0  0  0
 11 12  1  0  0  0
 12 13  2  0  0  0
 13 14  1  0  0  0
 14 15  2  0  0  0
  7  8  1  0  0  0
  8  9  1  0  0  0
 28 23  1  0  0  0
 21 17  1  0  0  0
  9  4  1  0  0  0
 15 10  1  0  0  0
M  END
> <minimizedAffinity>
-8.05341

> <CNNscore>
0.1466617584

> <CNNaffinity>
5.4049139023

> <CNN_VS>
0.7926941514

> <CNNaffinity_variance>
0.3709959686

$$$$
[H]OC(C([H])([H])[H])(C([H])([H])[H])C([H])([H])C([H])([H])N([H])S(=O)(=O)c1c([H])c([H])c(C([H])([H])[H])c(-c2c([H])nc(N([H])[H])c(-c3onc(C([H])([H])[H])c3[H])c2[H])c1[H]


 34 36  0  0  0  0  0  0  0  0999 V2000
   55.6263   -4.3663   -8.8699 C   0  0  0  0  0  0  0  0  0  0  0  0
   56.1657   -4.1858  -10.1491 C   0  0  0  0  0  0  0  0  0  0  0  0
   57.4490   -4.5845  -10.4585 C   0  0  0  0  0  0  0  0  0  0  0  0
   58.2388   -5.1762   -9.5064 C   0  0  0  0  0  0  0  0  0  0  0  0
   57.7316   -5.3658   -8.2396 C   0  0  0  0  0  0  0  0  0  0  0  0
   56.4207   -4.9573   -7.9283 C   0  0  0  0  0  0  0  0  0  0  0  0
   55.8908   -5.1910   -6.5583 C   0  0  0  0  0  0  0  0  0  0  0  0
   52.2806   -4.0886   -7.2555 C   0  0  0  0  0  0  0  0  0  0  0  0
   53.5877   -4.5198   -7.5243 C   0  0  0  0  0  0  0  0  0  0  0  0
   54.2726   -3.9207   -8.5602 C   0  0  0  0  0  0  0  0  0  0  0  0
   53.6384   -2.9275   -9.2809 C   0  0  0  0  0  0  0  0  0  0  0  0
   52.3910   -2.5272   -9.0119 N   0  0  0  0  0  0  0  0  0  0  0  0
   51.7004   -3.1097   -7.9905 C   0  0  0  0  0  0  0  0  0  0  0  0
   50.3865   -2.6561   -7.7418 N   0  0  0  0  0  0  0  0  0  0  0  0
   49.5393   -3.0634   -8.2009 H   0  0  0  0  0  0  0  0  0  0  0  0
   50.2208   -1.8821   -7.0760 H   0  0  0  0  0  0  0  0  0  0  0  0
   51.1456   -6.6089   -2.9997 C   0  0  0  0  0  0  0  0  0  0  0  0
   51.0714   -5.8629   -4.2922 C   0  0  0  0  0  0  0  0  0  0  0  0
   52.1516   -5.3727   -5.0509 C   0  0  0  0  0  0  0  0  0  0  0  0
   51.6071   -4.7669   -6.1397 C   0  0  0  0  0  0  0  0  0  0  0  0
   50.2889   -4.8815   -6.0479 O   0  0  0  0  0  0  0  0  0  0  0  0
   49.9831   -5.5130   -4.9831 N   0  0  0  0  0  0  0  0  0  0  0  0
   58.0703   -4.3286  -12.0901 S   0  0  0  0  0  0  0  0  0  0  0  0
   57.9035   -2.8575  -12.3941 O   0  0  0  0  0  0  0  0  0  0  0  0
   59.4978   -4.7442  -12.1427 O   0  0  0  0  0  0  0  0  0  0  0  0
   57.0736   -5.1971  -13.1657 N   0  0  0  0  0  0  0  0  0  0  0  0
   56.5409   -5.9105  -12.5866 H   0  0  0  0  0  0  0  0  0  0  0  0
   56.1392   -4.3463  -13.8742 C   0  0  0  0  0  0  0  0  0  0  0  0
   56.0325   -4.6919  -15.3239 C   0  0  0  0  0  0  0  0  0  0  0  0
   56.7845   -3.7620  -16.2163 C   0  0  0  0  0  0  0  0  0  0  0  0
   57.6315   -4.4268  -17.2526 C   0  0  0  0  0  0  0  0  0  0  0  0
   55.8044   -2.8441  -16.9055 C   0  0  0  0  0  0  0  0  0  0  0  0
   57.6160   -2.9545  -15.4378 O   0  0  0  0  0  0  0  0  0  0  0  0
   57.6708   -2.0414  -15.7843 H   0  0  0  0  0  0  0  0  0  0  0  0
 17 18  1  0  0  0
 18 19  1  0  0  0
 19 20  2  0  0  0
 20  8  1  0  0  0
  8  9  2  0  0  0
  9 10  1  0  0  0
 10  1  1  0  0  0
  1  2  2  0  0  0
  2  3  1  0  0  0
  3 23  1  0  0  0
 23 24  2  0  0  0
 23 25  2  0  0  0
 23 26  1  0  0  0
 26 28  1  0  0  0
 28 29  1  0  0  0
 29 30  1  0  0  0
 30 31  1  0  0  0
 30 32  1  0  0  0
 30 33  1  0  0  0
  3  4  2  0  0  0
  4  5  1  0  0  0
  5  6  2  0  0  0
  6  7  1  0  0  0
 10 11  2  0  0  0
 11 12  1  0  0  0
 12 13  2  0  0  0
 13 14  1  0  0  0
 20 21  1  0  0  0
 21 22  1  0  0  0
 22 18  2  0  0  0
 13  8  1  0  0  0
  6  1  1  0  0  0
 26 27  1  0  0  0
 33 34  1  0  0  0
 14 15  1  0  0  0
 14 16  1  0  0  0
M  END
> <minimizedAffinity>
-9.91536

> <CNNscore>
0.9052549601

> <CNNaffinity>
7.4840440750

> <CNN_VS>
6.7749681473

> <CNNaffinity_variance>
0.0686785579

$$$$
[H]OC(C([H])([H])[H])(C([H])([H])[H])C([H])([H])C([H])([H])N([H])S(=O)(=O)c1c([H])c([H])c(C([H])([H])[H])c(-c2c([H])nc(N([H])[H])c(-c3onc(C([H])([H])[H])c3[H])c2[H])c1[H]


 34 36  0  0  0  0  0  0  0  0999 V2000
   55.3737   -4.1894   -9.1866 C   0  0  0  0  0  0  0  0  0  0  0  0
   55.7368   -4.0880  -10.5349 C   0  0  0  0  0  0  0  0  0  0  0  0
   56.9820   -4.4762  -10.9823 C   0  0  0  0  0  0  0  0  0  0  0  0
   57.9079   -4.9782  -10.1042 C   0  0  0  0  0  0  0  0  0  0  0  0
   57.5755   -5.0887   -8.7718 C   0  0  0  0  0  0  0  0  0  0  0  0
   56.3028   -4.6914   -8.3196 C   0  0  0  0  0  0  0  0  0  0  0  0
   55.9627   -4.8391   -6.8791 C   0  0  0  0  0  0  0  0  0  0  0  0
   52.1822   -3.9969   -7.2749 C   0  0  0  0  0  0  0  0  0  0  0  0
   53.4561   -4.4181   -7.6831 C   0  0  0  0  0  0  0  0  0  0  0  0
   54.0571   -3.7562   -8.7327 C   0  0  0  0  0  0  0  0  0  0  0  0
   53.3759   -2.7132   -9.3295 C   0  0  0  0  0  0  0  0  0  0  0  0
   52.1612   -2.3233   -8.9283 N   0  0  0  0  0  0  0  0  0  0  0  0
   51.5534   -2.9676   -7.8915 C   0  0  0  0  0  0  0  0  0  0  0  0
   50.2714   -2.5226   -7.5012 N   0  0  0  0  0  0  0  0  0  0  0  0
   49.3830   -2.8929   -7.9112 H   0  0  0  0  0  0  0  0  0  0  0  0
   50.1729   -1.7934   -6.7743 H   0  0  0  0  0  0  0  0  0  0  0  0
   51.3843   -6.7422   -3.0822 C   0  0  0  0  0  0  0  0  0  0  0  0
   51.2091   -5.9379   -4.3292 C   0  0  0  0  0  0  0  0  0  0  0  0
   52.2264   -5.3866   -5.1319 C   0  0  0  0  0  0  0  0  0  0  0  0
   51.5984   -4.7431   -6.1521 C   0  0  0  0  0  0  0  0  0  0  0  0
   50.2918   -4.8935   -5.9801 O   0  0  0  0  0  0  0  0  0  0  0  0
   50.0704   -5.5818   -4.9298 N   0  0  0  0  0  0  0  0  0  0  0  0
   57.3781   -4.3229  -12.6950 S   0  0  0  0  0  0  0  0  0  0  0  0
   56.9276   -5.6019  -13.3626 O   0  0  0  0  0  0  0  0  0  0  0  0
   56.6820   -3.1335  -13.2555 O   0  0  0  0  0  0  0  0  0  0  0  0
   59.0751   -4.2378  -12.8282 N   0  0  0  0  0  0  0  0  0  0  0  0
   59.3948   -5.1385  -13.2914 H   0  0  0  0  0  0  0  0  0  0  0  0
   59.5193   -3.1014  -13.6095 C   0  0  0  0  0  0  0  0  0  0  0  0
   60.1884   -3.5056  -14.8828 C   0  0  0  0  0  0  0  0  0  0  0  0
   59.5833   -2.8861  -16.0980 C   0  0  0  0  0  0  0  0  0  0  0  0
   60.4261   -2.9566  -17.3301 C   0  0  0  0  0  0  0  0  0  0  0  0
   58.2569   -3.5498  -16.3778 C   0  0  0  0  0  0  0  0  0  0  0  0
   59.3155   -1.5404  -15.8394 O   0  0  0  0  0  0  0  0  0  0  0  0
   58.4844   -1.2434  -16.2613 H   0  0  0  0  0  0  0  0  0  0  0  0
 17 18  1  0  0  0
 18 19  1  0  0  0
 19 20  2  0  0  0
 20  8  1  0  0  0
  8  9  2  0  0  0
  9 10  1  0  0  0
 10  1  1  0  0  0
  1  2  2  0  0  0
  2  3  1  0  0  0
  3 23  1  0  0  0
 23 24  2  0  0  0
 23 25  2  0  0  0
 23 26  1  0  0  0
 26 28  1  0  0  0
 28 29  1  0  0  0
 29 30  1  0  0  0
 30 31  1  0  0  0
 30 32  1  0  0  0
 30 33  1  0  0  0
  3  4  2  0  0  0
  4  5  1  0  0  0
  5  6  2  0  0  0
  6  7  1  0  0  0
 10 11  2  0  0  0
 11 12  1  0  0  0
 12 13  2  0  0  0
 13 14  1  0  0  0
 20 21  1  0  0  0
 21 22  1  0  0  0
 22 18  2  0  0  0
 13  8  1  0  0  0
  6  1  1  0  0  0
 26 27  1  0  0  0
 33 34  1  0  0  0
 14 15  1  0  0  0
 14 16  1  0  0  0
M  END
> <minimizedAffinity>
-9.59701

> <CNNscore>
0.8791427016

> <CNNaffinity>
7.3304152489

> <CNN_VS>
6.4444808960

> <CNNaffinity_variance>
0.1290005296

$$$$
[H]OC(C([H])([H])[H])(C([H])([H])[H])C([H])([H])C([H])([H])N([H])S(=O)(=O)c1c([H])c([H])c(C([H])([H])[H])c(-c2c([H])nc(N([H])[H])c(-c3onc(C([H])([H])[H])c3[H])c2[H])c1[H]


 34 36  0  0  0  0  0  0  0  0999 V2000
   51.6246   -4.5063   -6.0144 C   0  0  0  0  0  0  0  0  0  0  0  0
   52.1174   -5.3281   -4.9937 C   0  0  0  0  0  0  0  0  0  0  0  0
   51.3761   -5.6070   -3.8649 C   0  0  0  0  0  0  0  0  0  0  0  0
   50.1200   -5.0781   -3.7131 C   0  0  0  0  0  0  0  0  0  0  0  0
   49.6116   -4.2664   -4.7034 C   0  0  0  0  0  0  0  0  0  0  0  0
   50.3719   -3.9847   -5.8543 C   0  0  0  0  0  0  0  0  0  0  0  0
   49.7919   -3.1208   -6.9172 C   0  0  0  0  0  0  0  0  0  0  0  0
   54.5149   -4.3060   -8.3561 C   0  0  0  0  0  0  0  0  0  0  0  0
   53.7505   -4.6169   -7.2221 C   0  0  0  0  0  0  0  0  0  0  0  0
   52.4333   -4.2106   -7.1916 C   0  0  0  0  0  0  0  0  0  0  0  0
   51.9327   -3.5183   -8.2771 C   0  0  0  0  0  0  0  0  0  0  0  0
   52.6749   -3.2297   -9.3515 N   0  0  0  0  0  0  0  0  0  0  0  0
   53.9793   -3.6247   -9.3972 C   0  0  0  0  0  0  0  0  0  0  0  0
   54.7254   -3.2986  -10.5508 N   0  0  0  0  0  0  0  0  0  0  0  0
   55.2626   -2.4072  -10.6571 H   0  0  0  0  0  0  0  0  0  0  0  0
   54.7622   -3.9551  -11.3493 H   0  0  0  0  0  0  0  0  0  0  0  0
   59.2394   -5.7566   -9.5079 C   0  0  0  0  0  0  0  0  0  0  0  0
   57.9783   -5.4063   -8.7872 C   0  0  0  0  0  0  0  0  0  0  0  0
   56.7720   -4.9584   -9.3591 C   0  0  0  0  0  0  0  0  0  0  0  0
   55.9094   -4.7674   -8.3253 C   0  0  0  0  0  0  0  0  0  0  0  0
   56.5480   -5.0776   -7.2048 O   0  0  0  0  0  0  0  0  0  0  0  0
   57.7390   -5.4452   -7.4736 N   0  0  0  0  0  0  0  0  0  0  0  0
   52.0545   -6.6505   -2.6141 S   0  0  0  0  0  0  0  0  0  0  0  0
   52.6060   -5.7414   -1.5400 O   0  0  0  0  0  0  0  0  0  0  0  0
   50.9871   -7.5426   -2.0868 O   0  0  0  0  0  0  0  0  0  0  0  0
   53.3647   -7.4970   -3.3007 N   0  0  0  0  0  0  0  0  0  0  0  0
   53.5811   -7.0313   -4.2305 H   0  0  0  0  0  0  0  0  0  0  0  0
   54.5441   -7.4814   -2.4595 C   0  0  0  0  0  0  0  0  0  0  0  0
   55.7664   -7.9580   -3.1744 C   0  0  0  0  0  0  0  0  0  0  0  0
   56.3612   -6.9373   -4.0859 C   0  0  0  0  0  0  0  0  0  0  0  0
   56.1035   -5.5170   -3.6988 C   0  0  0  0  0  0  0  0  0  0  0  0
   57.8525   -7.1574   -4.1619 C   0  0  0  0  0  0  0  0  0  0  0  0
   55.8583   -7.1273   -5.3746 O   0  0  0  0  0  0  0  0  0  0  0  0
   56.5342   -6.9594   -6.0613 H   0  0  0  0  0  0  0  0  0  0  0  0
 17 18  1  0  0  0
 18 19  1  0  0  0
 19 20  2  0  0  0
 20  8  1  0  0  0
  8  9  2  0  0  0
  9 10  1  0  0  0
 10  1  1  0  0  0
  1  2  2  0  0  0
  2  3  1  0  0  0
  3 23  1  0  0  0
 23 24  2  0  0  0
 23 25  2  0  0  0
 23 26  1  0  0  0
 26 28  1  0  0  0
 28 29  1  0  0  0
 29 30  1  0  0  0
 30 31  1  0  0  0
 30 32  1  0  0  0
 30 33  1  0  0  0
  3  4  2  0  0  0
  4  5  1  0  0  0
  5  6  2  0  0  0
  6  7  1  0  0  0
 10 11  2  0  0  0
 11 12  1  0  0  0
 12 13  2  0  0  0
 13 14  1  0  0  0
 20 21  1  0  0  0
 21 22  1  0  0  0
 22 18  2  0  0  0
 13  8  1  0  0  0
  6  1  1  0  0  0
 26 27  1  0  0  0
 33 34  1  0  0  0
 14 15  1  0  0  0
 14 16  1  0  0  0
M  END
> <minimizedAffinity>
-9.42382

> <CNNscore>
0.6064098477

> <CNNaffinity>
7.0925359726

> <CNN_VS>
4.3009834290

> <CNNaffinity_variance>
0.0487807281

$$$$
[H]OC(C([H])([H])[H])(C([H])([H])[H])C([H])([H])C([H])([H])N([H])S(=O)(=O)c1c([H])c([H])c(C([H])([H])[H])c(-c2c([H])nc(N([H])[H])c(-c3onc(C([H])([H])[H])c3[H])c2[H])c1[H]


 34 36  0  0  0  0  0  0  0  0999 V2000
   56.0387   -6.0718   -5.0320 C   0  0  0  0  0  0  0  0  0  0  0  0
   56.7075   -5.3869   -4.0105 C   0  0  0  0  0  0  0  0  0  0  0  0
   56.9808   -5.9809   -2.7964 C   0  0  0  0  0  0  0  0  0  0  0  0
   56.5982   -7.2759   -2.5573 C   0  0  0  0  0  0  0  0  0  0  0  0
   55.9388   -7.9723   -3.5464 C   0  0  0  0  0  0  0  0  0  0  0  0
   55.6622   -7.3618   -4.7845 C   0  0  0  0  0  0  0  0  0  0  0  0
   54.9659   -8.1422   -5.8421 C   0  0  0  0  0  0  0  0  0  0  0  0
   54.2571   -4.1878   -7.7066 C   0  0  0  0  0  0  0  0  0  0  0  0
   54.5264   -4.7945   -6.4712 C   0  0  0  0  0  0  0  0  0  0  0  0
   55.7445   -5.4178   -6.3019 C   0  0  0  0  0  0  0  0  0  0  0  0
   56.6376   -5.4144   -7.3557 C   0  0  0  0  0  0  0  0  0  0  0  0
   56.3658   -4.8311   -8.5281 N   0  0  0  0  0  0  0  0  0  0  0  0
   55.1656   -4.2102   -8.7112 C   0  0  0  0  0  0  0  0  0  0  0  0
   54.9211   -3.6076   -9.9646 N   0  0  0  0  0  0  0  0  0  0  0  0
   54.4889   -4.1123  -10.7726 H   0  0  0  0  0  0  0  0  0  0  0  0
   55.1716   -2.6165  -10.1229 H   0  0  0  0  0  0  0  0  0  0  0  0
   49.4055   -2.7899   -7.1982 C   0  0  0  0  0  0  0  0  0  0  0  0
   50.8318   -2.9025   -7.6289 C   0  0  0  0  0  0  0  0  0  0  0  0
   51.7957   -3.8053   -7.1404 C   0  0  0  0  0  0  0  0  0  0  0  0
   52.9428   -3.5415   -7.8213 C   0  0  0  0  0  0  0  0  0  0  0  0
   52.6922   -2.5481   -8.6637 O   0  0  0  0  0  0  0  0  0  0  0  0
   51.4759   -2.1820   -8.5510 N   0  0  0  0  0  0  0  0  0  0  0  0
   57.8274   -5.0632   -1.5495 S   0  0  0  0  0  0  0  0  0  0  0  0
   59.2146   -5.6533   -1.4404 O   0  0  0  0  0  0  0  0  0  0  0  0
   57.8678   -3.6278   -1.9385 O   0  0  0  0  0  0  0  0  0  0  0  0
   57.0277   -5.3402   -0.0702 N   0  0  0  0  0  0  0  0  0  0  0  0
   57.5059   -4.7334    0.6587 H   0  0  0  0  0  0  0  0  0  0  0  0
   55.6167   -5.0163   -0.1270 C   0  0  0  0  0  0  0  0  0  0  0  0
   54.7472   -6.2313   -0.1169 C   0  0  0  0  0  0  0  0  0  0  0  0
   53.3903   -5.9993   -0.6928 C   0  0  0  0  0  0  0  0  0  0  0  0
   53.3671   -5.7028   -2.1573 C   0  0  0  0  0  0  0  0  0  0  0  0
   52.5317   -7.2122   -0.4288 C   0  0  0  0  0  0  0  0  0  0  0  0
   52.7900   -4.9270   -0.0297 O   0  0  0  0  0  0  0  0  0  0  0  0
   51.8296   -5.0636    0.0954 H   0  0  0  0  0  0  0  0  0  0  0  0
 17 18  1  0  0  0
 18 19  1  0  0  0
 19 20  2  0  0  0
 20  8  1  0  0  0
  8  9  2  0  0  0
  9 10  1  0  0  0
 10  1  1  0  0  0
  1  2  2  0  0  0
  2  3  1  0  0  0
  3 23  1  0  0  0
 23 24  2  0  0  0
 23 25  2  0  0  0
 23 26  1  0  0  0
 26 28  1  0  0  0
 28 29  1  0  0  0
 29 30  1  0  0  0
 30 31  1  0  0  0
 30 32  1  0  0  0
 30 33  1  0  0  0
  3  4  2  0  0  0
  4  5  1  0  0  0
  5  6  2  0  0  0
  6  7  1  0  0  0
 10 11  2  0  0  0
 11 12  1  0  0  0
 12 13  2  0  0  0
 13 14  1  0  0  0
 20 21  1  0  0  0
 21 22  1  0  0  0
 22 18  2  0  0  0
 13  8  1  0  0  0
  6  1  1  0  0  0
 26 27  1  0  0  0
 33 34  1  0  0  0
 14 15  1  0  0  0
 14 16  1  0  0  0
M  END
> <minimizedAffinity>
-7.72363

> <CNNscore>
0.4843705297

> <CNNaffinity>
6.9263100624

> <CNN_VS>
3.3549003601

> <CNNaffinity_variance>
0.0970996469

$$$$
[H]OC(C([H])([H])[H])(C([H])([H])[H])C([H])([H])C([H])([H])N([H])S(=O)(=O)c1c([H])c([H])c(C([H])([H])[H])c(-c2c([H])nc(N([H])[H])c(-c3onc(C([H])([H])[H])c3[H])c2[H])c1[H]


 34 36  0  0  0  0  0  0  0  0999 V2000
   53.9904   -5.1621   -6.6250 C   0  0  0  0  0  0  0  0  0  0  0  0
   54.7448   -5.6788   -5.5649 C   0  0  0  0  0  0  0  0  0  0  0  0
   54.1635   -6.0349   -4.3663 C   0  0  0  0  0  0  0  0  0  0  0  0
   52.8125   -5.8892   -4.1816 C   0  0  0  0  0  0  0  0  0  0  0  0
   52.0472   -5.3832   -5.2094 C   0  0  0  0  0  0  0  0  0  0  0  0
   52.6451   -5.0213   -6.4316 C   0  0  0  0  0  0  0  0  0  0  0  0
   51.7933   -4.4954   -7.5316 C   0  0  0  0  0  0  0  0  0  0  0  0
   56.5343   -4.7566   -9.3160 C   0  0  0  0  0  0  0  0  0  0  0  0
   55.9337   -5.1547   -8.1128 C   0  0  0  0  0  0  0  0  0  0  0  0
   54.6290   -4.7755   -7.8779 C   0  0  0  0  0  0  0  0  0  0  0  0
   53.9794   -4.0233   -8.8372 C   0  0  0  0  0  0  0  0  0  0  0  0
   54.5662   -3.6516   -9.9800 N   0  0  0  0  0  0  0  0  0  0  0  0
   55.8560   -4.0188  -10.2274 C   0  0  0  0  0  0  0  0  0  0  0  0
   56.4357   -3.6045  -11.4465 N   0  0  0  0  0  0  0  0  0  0  0  0
   56.9451   -2.6984  -11.5643 H   0  0  0  0  0  0  0  0  0  0  0  0
   56.3699   -4.2068  -12.2849 H   0  0  0  0  0  0  0  0  0  0  0  0
   61.3038   -6.3772   -8.7025 C   0  0  0  0  0  0  0  0  0  0  0  0
   60.0108   -5.8983   -9.2781 C   0  0  0  0  0  0  0  0  0  0  0  0
   58.8345   -5.5817   -8.5717 C   0  0  0  0  0  0  0  0  0  0  0  0
   57.9243   -5.1933   -9.5044 C   0  0  0  0  0  0  0  0  0  0  0  0
   58.5078   -5.2690  -10.6932 O   0  0  0  0  0  0  0  0  0  0  0  0
   59.7091   -5.6752  -10.5600 N   0  0  0  0  0  0  0  0  0  0  0  0
   55.1700   -6.6805   -3.0688 S   0  0  0  0  0  0  0  0  0  0  0  0
   56.5529   -6.8764   -3.6464 O   0  0  0  0  0  0  0  0  0  0  0  0
   55.1784   -5.7224   -1.9307 O   0  0  0  0  0  0  0  0  0  0  0  0
   54.5583   -8.2164   -2.6546 N   0  0  0  0  0  0  0  0  0  0  0  0
   55.3935   -8.8639   -2.5481 H   0  0  0  0  0  0  0  0  0  0  0  0
   53.7914   -8.2010   -1.4255 C   0  0  0  0  0  0  0  0  0  0  0  0
   52.3345   -8.4408   -1.6539 C   0  0  0  0  0  0  0  0  0  0  0  0
   51.4504   -7.4912   -0.9170 C   0  0  0  0  0  0  0  0  0  0  0  0
   50.6383   -6.5825   -1.7819 C   0  0  0  0  0  0  0  0  0  0  0  0
   50.5178   -8.2784   -0.0288 C   0  0  0  0  0  0  0  0  0  0  0  0
   52.2332   -6.6962   -0.0775 O   0  0  0  0  0  0  0  0  0  0  0  0
   51.7866   -6.5083    0.7722 H   0  0  0  0  0  0  0  0  0  0  0  0
 17 18  1  0  0  0
 18 19  1  0  0  0
 19 20  2  0  0  0
 20  8  1  0  0  0
  8  9  2  0  0  0
  9 10  1  0  0  0
 10  1  1  0  0  0
  1  2  2  0  0  0
  2  3  1  0  0  0
  3 23  1  0  0  0
 23 24  2  0  0  0
 23 25  2  0  0  0
 23 26  1  0  0  0
 26 28  1  0  0  0
 28 29  1  0  0  0
 29 30  1  0  0  0
 30 31  1  0  0  0
 30 32  1  0  0  0
 30 33  1  0  0  0
  3  4  2  0  0  0
  4  5  1  0  0  0
  5  6  2  0  0  0
  6  7  1  0  0  0
 10 11  2  0  0  0
 11 12  1  0  0  0
 12 13  2  0  0  0
 13 14  1  0  0  0
 20 21  1  0  0  0
 21 22  1  0  0  0
 22 18  2  0  0  0
 13  8  1  0  0  0
  6  1  1  0  0  0
 26 27  1  0  0  0
 33 34  1  0  0  0
 14 15  1  0  0  0
 14 16  1  0  0  0
M  END
> <minimizedAffinity>
-9.07845

> <CNNscore>
0.3775075972

> <CNNaffinity>
6.6470746994

> <CNN_VS>
2.5093212128

> <CNNaffinity_variance>
0.1520587355

$$$$
[H]OC(C([H])([H])[H])(C([H])([H])[H])C([H])([H])C([H])([H])N([H])S(=O)(=O)c1c([H])c([H])c(C([H])([H])[H])c(-c2c([H])nc(N([H])[H])c(-c3onc(C([H])([H])[H])c3[H])c2[H])c1[H]


 34 36  0  0  0  0  0  0  0  0999 V2000
   53.4405   -5.1160   -6.6702 C   0  0  0  0  0  0  0  0  0  0  0  0
   54.1019   -5.9041   -5.7208 C   0  0  0  0  0  0  0  0  0  0  0  0
   53.4951   -6.2822   -4.5417 C   0  0  0  0  0  0  0  0  0  0  0  0
   52.2103   -5.8893   -4.2670 C   0  0  0  0  0  0  0  0  0  0  0  0
   51.5370   -5.1135   -5.1851 C   0  0  0  0  0  0  0  0  0  0  0  0
   52.1605   -4.7302   -6.3878 C   0  0  0  0  0  0  0  0  0  0  0  0
   51.4047   -3.9084   -7.3705 C   0  0  0  0  0  0  0  0  0  0  0  0
   56.0419   -4.6882   -9.3021 C   0  0  0  0  0  0  0  0  0  0  0  0
   55.4132   -5.1020   -8.1188 C   0  0  0  0  0  0  0  0  0  0  0  0
   54.1081   -4.7132   -7.9027 C   0  0  0  0  0  0  0  0  0  0  0  0
   53.4856   -3.9365   -8.8605 C   0  0  0  0  0  0  0  0  0  0  0  0
   54.0990   -3.5501   -9.9843 N   0  0  0  0  0  0  0  0  0  0  0  0
   55.3896   -3.9265  -10.2129 C   0  0  0  0  0  0  0  0  0  0  0  0
   55.9979   -3.4960  -11.4123 N   0  0  0  0  0  0  0  0  0  0  0  0
   56.5189   -2.5934  -11.5030 H   0  0  0  0  0  0  0  0  0  0  0  0
   55.9427   -4.0820  -12.2629 H   0  0  0  0  0  0  0  0  0  0  0  0
   60.8205   -6.2520   -8.6163 C   0  0  0  0  0  0  0  0  0  0  0  0
   59.5209   -5.8195   -9.2133 C   0  0  0  0  0  0  0  0  0  0  0  0
   58.3511   -5.4519   -8.5210 C   0  0  0  0  0  0  0  0  0  0  0  0
   57.4308   -5.1362   -9.4711 C   0  0  0  0  0  0  0  0  0  0  0  0
   58.0025   -5.3009  -10.6566 O   0  0  0  0  0  0  0  0  0  0  0  0
   59.2059   -5.6944  -10.5053 N   0  0  0  0  0  0  0  0  0  0  0  0
   54.3832   -7.2765   -3.3857 S   0  0  0  0  0  0  0  0  0  0  0  0
   53.3549   -7.9190   -2.4832 O   0  0  0  0  0  0  0  0  0  0  0  0
   55.1812   -8.2926   -4.1232 O   0  0  0  0  0  0  0  0  0  0  0  0
   55.3340   -6.2343   -2.4295 N   0  0  0  0  0  0  0  0  0  0  0  0
   55.5388   -6.7472   -1.5223 H   0  0  0  0  0  0  0  0  0  0  0  0
   56.5778   -5.8628   -3.0730 C   0  0  0  0  0  0  0  0  0  0  0  0
   57.7781   -6.3489   -2.3278 C   0  0  0  0  0  0  0  0  0  0  0  0
   58.5254   -7.4275   -3.0380 C   0  0  0  0  0  0  0  0  0  0  0  0
   60.0122   -7.2766   -3.0313 C   0  0  0  0  0  0  0  0  0  0  0  0
   58.1693   -8.7584   -2.4215 C   0  0  0  0  0  0  0  0  0  0  0  0
   58.1061   -7.4735   -4.3691 O   0  0  0  0  0  0  0  0  0  0  0  0
   58.0651   -8.3893   -4.7101 H   0  0  0  0  0  0  0  0  0  0  0  0
 17 18  1  0  0  0
 18 19  1  0  0  0
 19 20  2  0  0  0
 20  8  1  0  0  0
  8  9  2  0  0  0
  9 10  1  0  0  0
 10  1  1  0  0  0
  1  2  2  0  0  0
  2  3  1  0  0  0
  3 23  1  0  0  0
 23 24  2  0  0  0
 23 25  2  0  0  0
 23 26  1  0  0  0
 26 28  1  0  0  0
 28 29  1  0  0  0
 29 30  1  0  0  0
 30 31  1  0  0  0
 30 32  1  0  0  0
 30 33  1  0  0  0
  3  4  2  0  0  0
  4  5  1  0  0  0
  5  6  2  0  0  0
  6  7  1  0  0  0
 10 11  2  0  0  0
 11 12  1  0  0  0
 12 13  2  0  0  0
 13 14  1  0  0  0
 20 21  1  0  0  0
 21 22  1  0  0  0
 22 18  2  0  0  0
 13  8  1  0  0  0
  6  1  1  0  0  0
 26 27  1  0  0  0
 33 34  1  0  0  0
 14 15  1  0  0  0
 14 16  1  0  0  0
M  END
> <minimizedAffinity>
-9.20698

> <CNNscore>
0.3610661626

> <CNNaffinity>
6.6835060120

> <CNN_VS>
2.4131879807

> <CNNaffinity_variance>
0.1193972230

$$$$
[H]OC(C([H])([H])[H])(C([H])([H])[H])C([H])([H])C([H])([H])N([H])S(=O)(=O)c1c([H])c([H])c(C([H])([H])[H])c(-c2c([H])nc(N([H])[H])c(-c3onc(C([H])([H])[H])c3[H])c2[H])c1[H]


 34 36  0  0  0  0  0  0  0  0999 V2000
   56.0719   -6.1009   -5.0123 C   0  0  0  0  0  0  0  0  0  0  0  0
   56.8131   -5.4868   -3.9957 C   0  0  0  0  0  0  0  0  0  0  0  0
   57.0036   -6.0902   -2.7706 C   0  0  0  0  0  0  0  0  0  0  0  0
   56.4636   -7.3246   -2.5151 C   0  0  0  0  0  0  0  0  0  0  0  0
   55.7301   -7.9507   -3.4990 C   0  0  0  0  0  0  0  0  0  0  0  0
   55.5384   -7.3309   -4.7485 C   0  0  0  0  0  0  0  0  0  0  0  0
   54.7585   -8.0369   -5.7999 C   0  0  0  0  0  0  0  0  0  0  0  0
   54.4954   -4.1669   -7.7785 C   0  0  0  0  0  0  0  0  0  0  0  0
   54.6773   -4.7836   -6.5321 C   0  0  0  0  0  0  0  0  0  0  0  0
   55.8683   -5.4362   -6.2944 C   0  0  0  0  0  0  0  0  0  0  0  0
   56.8216   -5.4508   -7.2939 C   0  0  0  0  0  0  0  0  0  0  0  0
   56.6330   -4.8576   -8.4776 N   0  0  0  0  0  0  0  0  0  0  0  0
   55.4606   -4.2078   -8.7281 C   0  0  0  0  0  0  0  0  0  0  0  0
   55.3044   -3.5958   -9.9910 N   0  0  0  0  0  0  0  0  0  0  0  0
   54.9086   -4.0876  -10.8252 H   0  0  0  0  0  0  0  0  0  0  0  0
   55.5870   -2.6105  -10.1300 H   0  0  0  0  0  0  0  0  0  0  0  0
   49.6580   -2.6515   -7.5449 C   0  0  0  0  0  0  0  0  0  0  0  0
   51.1032   -2.7991   -7.8944 C   0  0  0  0  0  0  0  0  0  0  0  0
   52.0159   -3.7243   -7.3522 C   0  0  0  0  0  0  0  0  0  0  0  0
   53.2057   -3.4892   -7.9672 C   0  0  0  0  0  0  0  0  0  0  0  0
   53.0272   -2.4911   -8.8224 O   0  0  0  0  0  0  0  0  0  0  0  0
   51.8157   -2.0956   -8.7785 N   0  0  0  0  0  0  0  0  0  0  0  0
   57.9483   -5.2634   -1.5306 S   0  0  0  0  0  0  0  0  0  0  0  0
   57.8028   -3.7811   -1.7882 O   0  0  0  0  0  0  0  0  0  0  0  0
   57.4342   -5.6427   -0.1872 O   0  0  0  0  0  0  0  0  0  0  0  0
   59.5855   -5.6731   -1.7681 N   0  0  0  0  0  0  0  0  0  0  0  0
   60.1506   -5.1096   -1.0672 H   0  0  0  0  0  0  0  0  0  0  0  0
   59.8421   -7.0865   -1.5799 C   0  0  0  0  0  0  0  0  0  0  0  0
   60.8548   -7.6198   -2.5404 C   0  0  0  0  0  0  0  0  0  0  0  0
   60.2685   -8.4790   -3.6103 C   0  0  0  0  0  0  0  0  0  0  0  0
   61.2647   -9.2072   -4.4533 C   0  0  0  0  0  0  0  0  0  0  0  0
   59.3398   -9.4859   -2.9765 C   0  0  0  0  0  0  0  0  0  0  0  0
   59.4896   -7.6871   -4.4564 O   0  0  0  0  0  0  0  0  0  0  0  0
   58.6868   -8.1551   -4.7618 H   0  0  0  0  0  0  0  0  0  0  0  0
 17 18  1  0  0  0
 18 19  1  0  0  0
 19 20  2  0  0  0
 20  8  1  0  0  0
  8  9  2  0  0  0
  9 10  1  0  0  0
 10  1  1  0  0  0
  1  2  2  0  0  0
  2  3  1  0  0  0
  3 23  1  0  0  0
 23 24  2  0  0  0
 23 25  2  0  0  0
 23 26  1  0  0  0
 26 28  1  0  0  0
 28 29  1  0  0  0
 29 30  1  0  0  0
 30 31  1  0  0  0
 30 32  1  0  0  0
 30 33  1  0  0  0
  3  4  2  0  0  0
  4  5  1  0  0  0
  5  6  2  0  0  0
  6  7  1  0  0  0
 10 11  2  0  0  0
 11 12  1  0  0  0
 12 13  2  0  0  0
 13 14  1  0  0  0
 20 21  1  0  0  0
 21 22  1  0  0  0
 22 18  2  0  0  0
 13  8  1  0  0  0
  6  1  1  0  0  0
 26 27  1  0  0  0
 33 34  1  0  0  0
 14 15  1  0  0  0
 14 16  1  0  0  0
M  END
> <minimizedAffinity>
-7.26034

> <CNNscore>
0.3159974217

> <CNNaffinity>
6.6717286110

> <CNN_VS>
2.1082489491

> <CNNaffinity_variance>
0.2766846716

$$$$
[H]OC(C([H])([H])[H])(C([H])([H])[H])C([H])([H])C([H])([H])N([H])S(=O)(=O)c1c([H])c([H])c(C([H])([H])[H])c(-c2c([H])nc(N([H])[H])c(-c3onc(C([H])([H])[H])c3[H])c2[H])c1[H]


 34 36  0  0  0  0  0  0  0  0999 V2000
   53.3822   -5.1426   -6.5366 C   0  0  0  0  0  0  0  0  0  0  0  0
   54.0947   -5.8306   -5.5472 C   0  0  0  0  0  0  0  0  0  0  0  0
   53.5083   -6.2006   -4.3552 C   0  0  0  0  0  0  0  0  0  0  0  0
   52.1938   -5.8988   -4.1071 C   0  0  0  0  0  0  0  0  0  0  0  0
   51.4701   -5.2225   -5.0647 C   0  0  0  0  0  0  0  0  0  0  0  0
   52.0730   -4.8471   -6.2804 C   0  0  0  0  0  0  0  0  0  0  0  0
   51.2640   -4.1345   -7.3051 C   0  0  0  0  0  0  0  0  0  0  0  0
   55.9392   -4.7197   -9.2124 C   0  0  0  0  0  0  0  0  0  0  0  0
   55.3318   -5.1278   -8.0161 C   0  0  0  0  0  0  0  0  0  0  0  0
   54.0278   -4.7456   -7.7826 C   0  0  0  0  0  0  0  0  0  0  0  0
   53.3853   -3.9807   -8.7367 C   0  0  0  0  0  0  0  0  0  0  0  0
   53.9785   -3.5996   -9.8731 N   0  0  0  0  0  0  0  0  0  0  0  0
   55.2678   -3.9696  -10.1189 C   0  0  0  0  0  0  0  0  0  0  0  0
   55.8544   -3.5451  -11.3312 N   0  0  0  0  0  0  0  0  0  0  0  0
   56.3680   -2.6399  -11.4374 H   0  0  0  0  0  0  0  0  0  0  0  0
   55.7896   -4.1383  -12.1761 H   0  0  0  0  0  0  0  0  0  0  0  0
   60.7652   -6.1606   -8.5920 C   0  0  0  0  0  0  0  0  0  0  0  0
   59.4374   -5.7930   -9.1703 C   0  0  0  0  0  0  0  0  0  0  0  0
   58.2880   -5.3895   -8.4639 C   0  0  0  0  0  0  0  0  0  0  0  0
   57.3282   -5.1602   -9.3996 C   0  0  0  0  0  0  0  0  0  0  0  0
   57.8583   -5.4074  -10.5900 O   0  0  0  0  0  0  0  0  0  0  0  0
   59.0729   -5.7716  -10.4552 N   0  0  0  0  0  0  0  0  0  0  0  0
   54.4609   -7.0664   -3.1484 S   0  0  0  0  0  0  0  0  0  0  0  0
   54.7783   -6.0762   -2.0514 O   0  0  0  0  0  0  0  0  0  0  0  0
   53.6743   -8.2213   -2.6381 O   0  0  0  0  0  0  0  0  0  0  0  0
   55.9322   -7.5207   -3.8790 N   0  0  0  0  0  0  0  0  0  0  0  0
   56.2232   -6.7199   -4.5131 H   0  0  0  0  0  0  0  0  0  0  0  0
   56.9790   -7.7850   -2.9130 C   0  0  0  0  0  0  0  0  0  0  0  0
   57.9874   -6.6848   -2.8425 C   0  0  0  0  0  0  0  0  0  0  0  0
   58.2525   -6.2058   -1.4544 C   0  0  0  0  0  0  0  0  0  0  0  0
   59.5620   -6.6353   -0.8765 C   0  0  0  0  0  0  0  0  0  0  0  0
   58.1836   -4.6981   -1.4345 C   0  0  0  0  0  0  0  0  0  0  0  0
   57.2404   -6.6678   -0.6107 O   0  0  0  0  0  0  0  0  0  0  0  0
   57.0015   -6.0091    0.0717 H   0  0  0  0  0  0  0  0  0  0  0  0
 17 18  1  0  0  0
 18 19  1  0  0  0
 19 20  2  0  0  0
 20  8  1  0  0  0
  8  9  2  0  0  0
  9 10  1  0  0  0
 10  1  1  0  0  0
  1  2  2  0  0  0
  2  3  1  0  0  0
  3 23  1  0  0  0
 23 24  2  0  0  0
 23 25  2  0  0  0
 23 26  1  0  0  0
 26 28  1  0  0  0
 28 29  1  0  0  0
 29 30  1  0  0  0
 30 31  1  0  0  0
 30 32  1  0  0  0
 30 33  1  0  0  0
  3  4  2  0  0  0
  4  5  1  0  0  0
  5  6  2  0  0  0
  6  7  1  0  0  0
 10 11  2  0  0  0
 11 12  1  0  0  0
 12 13  2  0  0  0
 13 14  1  0  0  0
 20 21  1  0  0  0
 21 22  1  0  0  0
 22 18  2  0  0  0
 13  8  1  0  0  0
  6  1  1  0  0  0
 26 27  1  0  0  0
 33 34  1  0  0  0
 14 15  1  0  0  0
 14 16  1  0  0  0
M  END
> <minimizedAffinity>
-8.85639

> <CNNscore>
0.3141360283

> <CNNaffinity>
6.6248807907

> <CNN_VS>
2.0811138153

> <CNNaffinity_variance>
0.1839642525

$$$$
[H]OC(C([H])([H])[H])(C([H])([H])[H])C([H])([H])C([H])([H])N([H])S(=O)(=O)c1c([H])c([H])c(C([H])([H])[H])c(-c2c([H])nc(N([H])[H])c(-c3onc(C([H])([H])[H])c3[H])c2[H])c1[H]


 34 36  0  0  0  0  0  0  0  0999 V2000
   54.8208   -5.8184   -5.4584 C   0  0  0  0  0  0  0  0  0  0  0  0
   53.5204   -5.7276   -4.9479 C   0  0  0  0  0  0  0  0  0  0  0  0
   53.1799   -6.2725   -3.7279 C   0  0  0  0  0  0  0  0  0  0  0  0
   54.1211   -6.9260   -2.9745 C   0  0  0  0  0  0  0  0  0  0  0  0
   55.4085   -7.0290   -3.4540 C   0  0  0  0  0  0  0  0  0  0  0  0
   55.7516   -6.4708   -4.7001 C   0  0  0  0  0  0  0  0  0  0  0  0
   57.1532   -6.5795   -5.1859 C   0  0  0  0  0  0  0  0  0  0  0  0
   56.6848   -4.9668   -8.5693 C   0  0  0  0  0  0  0  0  0  0  0  0
   56.3775   -5.5388   -7.3262 C   0  0  0  0  0  0  0  0  0  0  0  0
   55.1542   -5.2499   -6.7595 C   0  0  0  0  0  0  0  0  0  0  0  0
   54.2936   -4.4126   -7.4425 C   0  0  0  0  0  0  0  0  0  0  0  0
   54.6016   -3.8750   -8.6277 N   0  0  0  0  0  0  0  0  0  0  0  0
   55.8074   -4.1511   -9.2016 C   0  0  0  0  0  0  0  0  0  0  0  0
   56.0906   -3.5620  -10.4533 N   0  0  0  0  0  0  0  0  0  0  0  0
   56.5468   -2.6267  -10.5604 H   0  0  0  0  0  0  0  0  0  0  0  0
   55.8460   -4.0567  -11.3282 H   0  0  0  0  0  0  0  0  0  0  0  0
   61.5089   -6.3901   -9.2432 C   0  0  0  0  0  0  0  0  0  0  0  0
   60.1029   -5.9298   -9.4528 C   0  0  0  0  0  0  0  0  0  0  0  0
   59.1189   -5.7350   -8.4645 C   0  0  0  0  0  0  0  0  0  0  0  0
   58.0027   -5.3147   -9.1176 C   0  0  0  0  0  0  0  0  0  0  0  0
   58.2895   -5.2587  -10.4114 O   0  0  0  0  0  0  0  0  0  0  0  0
   59.4995   -5.6134  -10.6017 N   0  0  0  0  0  0  0  0  0  0  0  0
   51.5227   -6.1238   -3.1403 S   0  0  0  0  0  0  0  0  0  0  0  0
   51.1998   -7.4110   -2.4167 O   0  0  0  0  0  0  0  0  0  0  0  0
   51.4255   -4.9449   -2.2382 O   0  0  0  0  0  0  0  0  0  0  0  0
   50.4990   -6.0214   -4.4990 N   0  0  0  0  0  0  0  0  0  0  0  0
   49.5791   -6.4785   -4.2288 H   0  0  0  0  0  0  0  0  0  0  0  0
   50.2615   -4.6555   -4.9196 C   0  0  0  0  0  0  0  0  0  0  0  0
   50.7536   -4.3866   -6.3045 C   0  0  0  0  0  0  0  0  0  0  0  0
   50.0855   -3.2249   -6.9606 C   0  0  0  0  0  0  0  0  0  0  0  0
   49.2952   -2.3491   -6.0432 C   0  0  0  0  0  0  0  0  0  0  0  0
   51.1310   -2.3851   -7.6533 C   0  0  0  0  0  0  0  0  0  0  0  0
   49.2223   -3.6949   -7.9524 O   0  0  0  0  0  0  0  0  0  0  0  0
   49.2123   -3.1116   -8.7375 H   0  0  0  0  0  0  0  0  0  0  0  0
 17 18  1  0  0  0
 18 19  1  0  0  0
 19 20  2  0  0  0
 20  8  1  0  0  0
  8  9  2  0  0  0
  9 10  1  0  0  0
 10  1  1  0  0  0
  1  2  2  0  0  0
  2  3  1  0  0  0
  3 23  1  0  0  0
 23 24  2  0  0  0
 23 25  2  0  0  0
 23 26  1  0  0  0
 26 28  1  0  0  0
 28 29  1  0  0  0
 29 30  1  0  0  0
 30 31  1  0  0  0
 30 32  1  0  0  0
 30 33  1  0  0  0
  3  4  2  0  0  0
  4  5  1  0  0  0
  5  6  2  0  0  0
  6  7  1  0  0  0
 10 11  2  0  0  0
 11 12  1  0  0  0
 12 13  2  0  0  0
 13 14  1  0  0  0
 20 21  1  0  0  0
 21 22  1  0  0  0
 22 18  2  0  0  0
 13  8  1  0  0  0
  6  1  1  0  0  0
 26 27  1  0  0  0
 33 34  1  0  0  0
 14 15  1  0  0  0
 14 16  1  0  0  0
M  END
> <minimizedAffinity>
-8.69758

> <CNNscore>
0.3036772907

> <CNNaffinity>
6.8235344887

> <CNN_VS>
2.0721523762

> <CNNaffinity_variance>
0.0919554383

$$$$
[H]/C(=C(/[H])c1c([H])c(OC([H])([H])[H])c([H])c(OC([H])([H])[H])c1[H])c1c([H])c([H])c(OC([H])([H])C([H])([H])[H])c([H])c1[H]


 21 22  0  0  0  0  0  0  0  0999 V2000
   54.0716   -4.5104   -8.1584 C   0  0  0  0  0  0  0  0  0  0  0  0
   54.8365   -3.8156   -8.9671 C   0  0  0  0  0  0  0  0  0  0  0  0
   50.2516   -3.2717   -6.7156 C   0  0  0  0  0  0  0  0  0  0  0  0
   50.8687   -4.4019   -6.2325 C   0  0  0  0  0  0  0  0  0  0  0  0
   52.1108   -4.7865   -6.7156 C   0  0  0  0  0  0  0  0  0  0  0  0
   52.7638   -4.0609   -7.6839 C   0  0  0  0  0  0  0  0  0  0  0  0
   52.1483   -2.9324   -8.1668 C   0  0  0  0  0  0  0  0  0  0  0  0
   50.8985   -2.5407   -7.6844 C   0  0  0  0  0  0  0  0  0  0  0  0
   49.0079   -2.8461   -6.2630 O   0  0  0  0  0  0  0  0  0  0  0  0
   47.3710   -2.7834   -4.5084 C   0  0  0  0  0  0  0  0  0  0  0  0
   48.8301   -2.6197   -4.8847 C   0  0  0  0  0  0  0  0  0  0  0  0
   56.1338   -4.2954   -9.4188 C   0  0  0  0  0  0  0  0  0  0  0  0
   56.3867   -4.2929  -10.7939 C   0  0  0  0  0  0  0  0  0  0  0  0
   57.5758   -4.7233  -11.3342 C   0  0  0  0  0  0  0  0  0  0  0  0
   58.5674   -5.1786  -10.4917 C   0  0  0  0  0  0  0  0  0  0  0  0
   58.3221   -5.1822   -9.1406 C   0  0  0  0  0  0  0  0  0  0  0  0
   57.1226   -4.7480   -8.5965 C   0  0  0  0  0  0  0  0  0  0  0  0
   57.7151   -4.6760  -12.7091 O   0  0  0  0  0  0  0  0  0  0  0  0
   56.8649   -3.9745  -13.5748 C   0  0  0  0  0  0  0  0  0  0  0  0
   59.3357   -5.6453   -8.3098 O   0  0  0  0  0  0  0  0  0  0  0  0
   60.5153   -6.2433   -8.7647 C   0  0  0  0  0  0  0  0  0  0  0  0
 10 11  1  0  0  0
 11  9  1  0  0  0
  9  3  1  0  0  0
  3  4  2  0  0  0
  4  5  1  0  0  0
  5  6  2  0  0  0
  6  1  1  0  0  0
  1  2  2  0  0  0
  2 12  1  0  0  0
 12 13  2  0  0  0
 13 14  1  0  0  0
 14 18  1  0  0  0
 18 19  1  0  0  0
 14 15  2  0  0  0
 15 16  1  0  0  0
 16 20  1  0  0  0
 20 21  1  0  0  0
 16 17  2  0  0  0
  6  7  1  0  0  0
  7  8  2  0  0  0
  8  3  1  0  0  0
 17 12  1  0  0  0
M  END
> <minimizedAffinity>
-8.99332

> <CNNscore>
0.5593695045

> <CNNaffinity>
5.4886689186

> <CNN_VS>
3.0701940060

> <CNNaffinity_variance>
0.2012707442

$$$$
[H]/C(=C(/[H])c1c([H])c(OC([H])([H])[H])c([H])c(OC([H])([H])[H])c1[H])c1c([H])c([H])c(OC([H])([H])C([H])([H])[H])c([H])c1[H]


 21 22  0  0  0  0  0  0  0  0999 V2000
   54.1259   -4.6326   -8.3306 C   0  0  0  0  0  0  0  0  0  0  0  0
   55.1959   -3.8854   -8.4681 C   0  0  0  0  0  0  0  0  0  0  0  0
   50.4394   -3.1642   -6.7614 C   0  0  0  0  0  0  0  0  0  0  0  0
   51.1032   -2.5048   -7.7693 C   0  0  0  0  0  0  0  0  0  0  0  0
   52.3006   -2.9997   -8.2649 C   0  0  0  0  0  0  0  0  0  0  0  0
   52.8619   -4.1543   -7.7727 C   0  0  0  0  0  0  0  0  0  0  0  0
   52.1998   -4.8133   -6.7663 C   0  0  0  0  0  0  0  0  0  0  0  0
   50.9948   -4.3199   -6.2639 C   0  0  0  0  0  0  0  0  0  0  0  0
   49.2376   -2.7076   -6.2324 O   0  0  0  0  0  0  0  0  0  0  0  0
   47.5222   -2.6352   -4.5549 C   0  0  0  0  0  0  0  0  0  0  0  0
   48.9810   -2.9082   -4.8626 C   0  0  0  0  0  0  0  0  0  0  0  0
   56.4378   -4.3962   -9.0282 C   0  0  0  0  0  0  0  0  0  0  0  0
   56.5790   -4.3839  -10.4191 C   0  0  0  0  0  0  0  0  0  0  0  0
   57.7075   -4.8412  -11.0583 C   0  0  0  0  0  0  0  0  0  0  0  0
   58.7500   -5.3348  -10.3034 C   0  0  0  0  0  0  0  0  0  0  0  0
   58.6145   -5.3481   -8.9370 C   0  0  0  0  0  0  0  0  0  0  0  0
   57.4761   -4.8868   -8.2932 C   0  0  0  0  0  0  0  0  0  0  0  0
   57.7368   -4.7809  -12.4394 O   0  0  0  0  0  0  0  0  0  0  0  0
   56.7809   -4.1301  -13.2312 C   0  0  0  0  0  0  0  0  0  0  0  0
   59.6779   -5.8500   -8.1957 O   0  0  0  0  0  0  0  0  0  0  0  0
   60.8564   -6.3569   -8.7526 C   0  0  0  0  0  0  0  0  0  0  0  0
 10 11  1  0  0  0
 11  9  1  0  0  0
  9  3  1  0  0  0
  3  4  2  0  0  0
  4  5  1  0  0  0
  5  6  2  0  0  0
  6  1  1  0  0  0
  1  2  2  0  0  0
  2 12  1  0  0  0
 12 13  2  0  0  0
 13 14  1  0  0  0
 14 18  1  0  0  0
 18 19  1  0  0  0
 14 15  2  0  0  0
 15 16  1  0  0  0
 16 20  1  0  0  0
 20 21  1  0  0  0
 16 17  2  0  0  0
  6  7  1  0  0  0
  7  8  2  0  0  0
  8  3  1  0  0  0
 17 12  1  0  0  0
M  END
> <minimizedAffinity>
-8.99365

> <CNNscore>
0.5357834697

> <CNNaffinity>
5.4931397438

> <CNN_VS>
2.9431333542

> <CNNaffinity_variance>
0.2311900407

$$$$
[H]/C(=C(/[H])c1c([H])c(OC([H])([H])[H])c([H])c(OC([H])([H])[H])c1[H])c1c([H])c([H])c(OC([H])([H])C([H])([H])[H])c([H])c1[H]


 21 22  0  0  0  0  0  0  0  0999 V2000
   53.8949   -4.2778   -8.7903 C   0  0  0  0  0  0  0  0  0  0  0  0
   55.0995   -3.8114   -8.5590 C   0  0  0  0  0  0  0  0  0  0  0  0
   50.3907   -2.8841   -6.7935 C   0  0  0  0  0  0  0  0  0  0  0  0
   50.9550   -2.1770   -7.8294 C   0  0  0  0  0  0  0  0  0  0  0  0
   52.0945   -2.6483   -8.4647 C   0  0  0  0  0  0  0  0  0  0  0  0
   52.6952   -3.8261   -8.0872 C   0  0  0  0  0  0  0  0  0  0  0  0
   52.1324   -4.5327   -7.0530 C   0  0  0  0  0  0  0  0  0  0  0  0
   50.9860   -4.0632   -6.4102 C   0  0  0  0  0  0  0  0  0  0  0  0
   49.2498   -2.4528   -6.1264 O   0  0  0  0  0  0  0  0  0  0  0  0
   47.5350   -2.6544   -4.4590 C   0  0  0  0  0  0  0  0  0  0  0  0
   48.9513   -3.0075   -4.8672 C   0  0  0  0  0  0  0  0  0  0  0  0
   56.2715   -4.2853   -9.2792 C   0  0  0  0  0  0  0  0  0  0  0  0
   57.3319   -4.8029   -8.5292 C   0  0  0  0  0  0  0  0  0  0  0  0
   58.4879   -5.2791   -9.1019 C   0  0  0  0  0  0  0  0  0  0  0  0
   58.6160   -5.2490  -10.4742 C   0  0  0  0  0  0  0  0  0  0  0  0
   57.5763   -4.7412  -11.2137 C   0  0  0  0  0  0  0  0  0  0  0  0
   56.4108   -4.2612  -10.6352 C   0  0  0  0  0  0  0  0  0  0  0  0
   59.4711   -5.7681   -8.2617 O   0  0  0  0  0  0  0  0  0  0  0  0
   60.6917   -6.3081   -8.6893 C   0  0  0  0  0  0  0  0  0  0  0  0
   57.7270   -4.7206  -12.5953 O   0  0  0  0  0  0  0  0  0  0  0  0
   56.7873   -4.1853  -13.4821 C   0  0  0  0  0  0  0  0  0  0  0  0
 10 11  1  0  0  0
 11  9  1  0  0  0
  9  3  1  0  0  0
  3  4  2  0  0  0
  4  5  1  0  0  0
  5  6  2  0  0  0
  6  1  1  0  0  0
  1  2  2  0  0  0
  2 12  1  0  0  0
 12 13  2  0  0  0
 13 14  1  0  0  0
 14 18  1  0  0  0
 18 19  1  0  0  0
 14 15  2  0  0  0
 15 16  1  0  0  0
 16 20  1  0  0  0
 20 21  1  0  0  0
 16 17  2  0  0  0
  6  7  1  0  0  0
  7  8  2  0  0  0
  8  3  1  0  0  0
 17 12  1  0  0  0
M  END
> <minimizedAffinity>
-8.97921

> <CNNscore>
0.5345284343

> <CNNaffinity>
5.4674043655

> <CNN_VS>
2.9224832058

> <CNNaffinity_variance>
0.2264183462

$$$$
[H]/C(=C(/[H])c1c([H])c(OC([H])([H])[H])c([H])c(OC([H])([H])[H])c1[H])c1c([H])c([H])c(OC([H])([H])C([H])([H])[H])c([H])c1[H]


 21 22  0  0  0  0  0  0  0  0999 V2000
   53.9389   -3.9624   -8.9883 C   0  0  0  0  0  0  0  0  0  0  0  0
   55.1319   -4.0191   -8.4447 C   0  0  0  0  0  0  0  0  0  0  0  0
   50.4268   -2.8340   -6.8434 C   0  0  0  0  0  0  0  0  0  0  0  0
   51.1022   -3.9963   -6.5529 C   0  0  0  0  0  0  0  0  0  0  0  0
   52.2420   -4.3441   -7.2628 C   0  0  0  0  0  0  0  0  0  0  0  0
   52.7335   -3.5493   -8.2713 C   0  0  0  0  0  0  0  0  0  0  0  0
   52.0597   -2.3887   -8.5620 C   0  0  0  0  0  0  0  0  0  0  0  0
   50.9123   -2.0338   -7.8510 C   0  0  0  0  0  0  0  0  0  0  0  0
   49.2808   -2.4432   -6.1603 O   0  0  0  0  0  0  0  0  0  0  0  0
   47.5702   -2.8036   -4.5153 C   0  0  0  0  0  0  0  0  0  0  0  0
   49.0249   -3.0003   -4.8928 C   0  0  0  0  0  0  0  0  0  0  0  0
   56.3102   -4.4353   -9.1900 C   0  0  0  0  0  0  0  0  0  0  0  0
   57.3946   -4.9396   -8.4659 C   0  0  0  0  0  0  0  0  0  0  0  0
   58.5586   -5.3627   -9.0637 C   0  0  0  0  0  0  0  0  0  0  0  0
   58.6703   -5.2904  -10.4359 C   0  0  0  0  0  0  0  0  0  0  0  0
   57.6069   -4.7955  -11.1500 C   0  0  0  0  0  0  0  0  0  0  0  0
   56.4334   -4.3690  -10.5463 C   0  0  0  0  0  0  0  0  0  0  0  0
   59.5660   -5.8435   -8.2478 O   0  0  0  0  0  0  0  0  0  0  0  0
   60.8110   -6.3012   -8.7005 C   0  0  0  0  0  0  0  0  0  0  0  0
   57.7414   -4.7317  -12.5320 O   0  0  0  0  0  0  0  0  0  0  0  0
   56.7481   -4.2656  -13.3992 C   0  0  0  0  0  0  0  0  0  0  0  0
 10 11  1  0  0  0
 11  9  1  0  0  0
  9  3  1  0  0  0
  3  4  2  0  0  0
  4  5  1  0  0  0
  5  6  2  0  0  0
  6  1  1  0  0  0
  1  2  2  0  0  0
  2 12  1  0  0  0
 12 13  2  0  0  0
 13 14  1  0  0  0
 14 18  1  0  0  0
 18 19  1  0  0  0
 14 15  2  0  0  0
 15 16  1  0  0  0
 16 20  1  0  0  0
 20 21  1  0  0  0
 16 17  2  0  0  0
  6  7  1  0  0  0
  7  8  2  0  0  0
  8  3  1  0  0  0
 17 12  1  0  0  0
M  END
> <minimizedAffinity>
-9.00796

> <CNNscore>
0.5005832911

> <CNNaffinity>
5.4246816635

> <CNN_VS>
2.7155048847

> <CNNaffinity_variance>
0.2263564765

$$$$
[H]/C(=C(/[H])c1c([H])c(OC([H])([H])[H])c([H])c(OC([H])([H])[H])c1[H])c1c([H])c([H])c(OC([H])([H])C([H])([H])[H])c([H])c1[H]


 21 22  0  0  0  0  0  0  0  0999 V2000
   60.6035   -3.2190  -14.6125 C   0  0  0  0  0  0  0  0  0  0  0  0
   59.4698   -2.6247  -14.9018 C   0  0  0  0  0  0  0  0  0  0  0  0
   64.4391   -1.4454  -15.2051 C   0  0  0  0  0  0  0  0  0  0  0  0
   63.8035   -2.1330  -16.2124 C   0  0  0  0  0  0  0  0  0  0  0  0
   62.5566   -2.7019  -15.9982 C   0  0  0  0  0  0  0  0  0  0  0  0
   61.9171   -2.6009  -14.7853 C   0  0  0  0  0  0  0  0  0  0  0  0
   62.5510   -1.9145  -13.7790 C   0  0  0  0  0  0  0  0  0  0  0  0
   63.8056   -1.3401  -13.9889 C   0  0  0  0  0  0  0  0  0  0  0  0
   65.6882   -0.8584  -15.3717 O   0  0  0  0  0  0  0  0  0  0  0  0
   64.7461    0.7844  -16.8466 C   0  0  0  0  0  0  0  0  0  0  0  0
   65.7547    0.4954  -15.7527 C   0  0  0  0  0  0  0  0  0  0  0  0
   58.1799   -3.2718  -14.7165 C   0  0  0  0  0  0  0  0  0  0  0  0
   57.9185   -3.8605  -13.4756 C   0  0  0  0  0  0  0  0  0  0  0  0
   56.7351   -4.4990  -13.1875 C   0  0  0  0  0  0  0  0  0  0  0  0
   55.7581   -4.5666  -14.1579 C   0  0  0  0  0  0  0  0  0  0  0  0
   56.0118   -3.9893  -15.3777 C   0  0  0  0  0  0  0  0  0  0  0  0
   57.2055   -3.3456  -15.6674 C   0  0  0  0  0  0  0  0  0  0  0  0
   56.5863   -5.0453  -11.9260 O   0  0  0  0  0  0  0  0  0  0  0  0
   56.6736   -4.3240  -10.7275 C   0  0  0  0  0  0  0  0  0  0  0  0
   55.0129   -4.0693  -16.3410 O   0  0  0  0  0  0  0  0  0  0  0  0
   55.0344   -3.3789  -17.5570 C   0  0  0  0  0  0  0  0  0  0  0  0
 10 11  1  0  0  0
 11  9  1  0  0  0
  9  3  1  0  0  0
  3  4  2  0  0  0
  4  5  1  0  0  0
  5  6  2  0  0  0
  6  1  1  0  0  0
  1  2  2  0  0  0
  2 12  1  0  0  0
 12 13  2  0  0  0
 13 14  1  0  0  0
 14 18  1  0  0  0
 18 19  1  0  0  0
 14 15  2  0  0  0
 15 16  1  0  0  0
 16 20  1  0  0  0
 20 21  1  0  0  0
 16 17  2  0  0  0
  6  7  1  0  0  0
  7  8  2  0  0  0
  8  3  1  0  0  0
 17 12  1  0  0  0
M  END
> <minimizedAffinity>
-1.17933

> <CNNscore>
0.4823286533

> <CNNaffinity>
3.9377865791

> <CNN_VS>
1.8993072510

> <CNNaffinity_variance>
0.1074719653

$$$$
[H]/C(=C(/[H])c1c([H])c(OC([H])([H])[H])c([H])c(OC([H])([H])[H])c1[H])c1c([H])c([H])c(OC([H])([H])C([H])([H])[H])c([H])c1[H]


 21 22  0  0  0  0  0  0  0  0999 V2000
   53.9513   -3.7976   -9.4556 C   0  0  0  0  0  0  0  0  0  0  0  0
   55.1454   -4.3134   -9.2823 C   0  0  0  0  0  0  0  0  0  0  0  0
   50.8855   -3.6629   -6.4904 C   0  0  0  0  0  0  0  0  0  0  0  0
   50.9696   -2.7105   -7.4790 C   0  0  0  0  0  0  0  0  0  0  0  0
   51.9744   -2.7732   -8.4332 C   0  0  0  0  0  0  0  0  0  0  0  0
   52.9129   -3.7781   -8.4265 C   0  0  0  0  0  0  0  0  0  0  0  0
   52.8297   -4.7294   -7.4398 C   0  0  0  0  0  0  0  0  0  0  0  0
   51.8208   -4.6712   -6.4771 C   0  0  0  0  0  0  0  0  0  0  0  0
   49.8973   -3.6424   -5.5129 O   0  0  0  0  0  0  0  0  0  0  0  0
   48.7302   -4.4634   -3.5827 C   0  0  0  0  0  0  0  0  0  0  0  0
   49.9288   -4.6174   -4.4976 C   0  0  0  0  0  0  0  0  0  0  0  0
   56.1545   -4.3148  -10.3306 C   0  0  0  0  0  0  0  0  0  0  0  0
   57.4122   -4.8426  -10.0235 C   0  0  0  0  0  0  0  0  0  0  0  0
   58.4413   -4.8958  -10.9341 C   0  0  0  0  0  0  0  0  0  0  0  0
   58.2334   -4.4101  -12.2074 C   0  0  0  0  0  0  0  0  0  0  0  0
   56.9991   -3.8912  -12.5122 C   0  0  0  0  0  0  0  0  0  0  0  0
   55.9618   -3.8379  -11.5932 C   0  0  0  0  0  0  0  0  0  0  0  0
   59.6432   -5.4395  -10.5195 O   0  0  0  0  0  0  0  0  0  0  0  0
   59.8234   -6.1730   -9.3390 C   0  0  0  0  0  0  0  0  0  0  0  0
   56.8117   -3.4072  -13.8018 O   0  0  0  0  0  0  0  0  0  0  0  0
   56.2324   -4.1411  -14.8419 C   0  0  0  0  0  0  0  0  0  0  0  0
 10 11  1  0  0  0
 11  9  1  0  0  0
  9  3  1  0  0  0
  3  4  2  0  0  0
  4  5  1  0  0  0
  5  6  2  0  0  0
  6  1  1  0  0  0
  1  2  2  0  0  0
  2 12  1  0  0  0
 12 13  2  0  0  0
 13 14  1  0  0  0
 14 18  1  0  0  0
 18 19  1  0  0  0
 14 15  2  0  0  0
 15 16  1  0  0  0
 16 20  1  0  0  0
 20 21  1  0  0  0
 16 17  2  0  0  0
  6  7  1  0  0  0
  7  8  2  0  0  0
  8  3  1  0  0  0
 17 12  1  0  0  0
M  END
> <minimizedAffinity>
-8.44045

> <CNNscore>
0.4455796182

> <CNNaffinity>
5.3652782440

> <CNN_VS>
2.3906586170

> <CNNaffinity_variance>
0.2583661973

$$$$
[H]/C(=C(/[H])c1c([H])c(OC([H])([H])[H])c([H])c(OC([H])([H])[H])c1[H])c1c([H])c([H])c(OC([H])([H])C([H])([H])[H])c([H])c1[H]


 21 22  0  0  0  0  0  0  0  0999 V2000
   59.3230   -6.9917   -5.2113 C   0  0  0  0  0  0  0  0  0  0  0  0
   58.2135   -7.2935   -5.8438 C   0  0  0  0  0  0  0  0  0  0  0  0
   63.0921   -8.7610   -6.1451 C   0  0  0  0  0  0  0  0  0  0  0  0
   62.2515   -8.3012   -7.1317 C   0  0  0  0  0  0  0  0  0  0  0  0
   61.0304   -7.7293   -6.8059 C   0  0  0  0  0  0  0  0  0  0  0  0
   60.6197   -7.6022   -5.4999 C   0  0  0  0  0  0  0  0  0  0  0  0
   61.4584   -8.0610   -4.5143 C   0  0  0  0  0  0  0  0  0  0  0  0
   62.6881   -8.6373   -4.8363 C   0  0  0  0  0  0  0  0  0  0  0  0
   64.3248   -9.3411   -6.4219 O   0  0  0  0  0  0  0  0  0  0  0  0
   64.4872   -9.1768   -8.8111 C   0  0  0  0  0  0  0  0  0  0  0  0
   64.4693  -10.0928   -7.6037 C   0  0  0  0  0  0  0  0  0  0  0  0
   56.9398   -6.6646   -5.5290 C   0  0  0  0  0  0  0  0  0  0  0  0
   56.6189   -6.4820   -4.1805 C   0  0  0  0  0  0  0  0  0  0  0  0
   55.4443   -5.8996   -3.7657 C   0  0  0  0  0  0  0  0  0  0  0  0
   54.5376   -5.4741   -4.7130 C   0  0  0  0  0  0  0  0  0  0  0  0
   54.8499   -5.6520   -6.0383 C   0  0  0  0  0  0  0  0  0  0  0  0
   56.0347   -6.2395   -6.4559 C   0  0  0  0  0  0  0  0  0  0  0  0
   55.2326   -5.7703   -2.4053 O   0  0  0  0  0  0  0  0  0  0  0  0
   54.5805   -4.6889   -1.7973 C   0  0  0  0  0  0  0  0  0  0  0  0
   53.9214   -5.2156   -6.9762 O   0  0  0  0  0  0  0  0  0  0  0  0
   53.9700   -3.9712   -7.6126 C   0  0  0  0  0  0  0  0  0  0  0  0
 10 11  1  0  0  0
 11  9  1  0  0  0
  9  3  1  0  0  0
  3  4  2  0  0  0
  4  5  1  0  0  0
  5  6  2  0  0  0
  6  1  1  0  0  0
  1  2  2  0  0  0
  2 12  1  0  0  0
 12 13  2  0  0  0
 13 14  1  0  0  0
 14 18  1  0  0  0
 18 19  1  0  0  0
 14 15  2  0  0  0
 15 16  1  0  0  0
 16 20  1  0  0  0
 20 21  1  0  0  0
 16 17  2  0  0  0
  6  7  1  0  0  0
  7  8  2  0  0  0
  8  3  1  0  0  0
 17 12  1  0  0  0
M  END
> <minimizedAffinity>
2.17647

> <CNNscore>
0.4260590076

> <CNNaffinity>
4.8895058632

> <CNN_VS>
2.0832180977

> <CNNaffinity_variance>
1.9324867725

$$$$
[H]/C(=C(/[H])c1c([H])c(OC([H])([H])[H])c([H])c(OC([H])([H])[H])c1[H])c1c([H])c([H])c(OC([H])([H])C([H])([H])[H])c([H])c1[H]


 21 22  0  0  0  0  0  0  0  0999 V2000
   55.9008   -4.7215   -9.7929 C   0  0  0  0  0  0  0  0  0  0  0  0
   54.7505   -4.1749   -9.4765 C   0  0  0  0  0  0  0  0  0  0  0  0
   58.0167   -3.7581  -13.3712 C   0  0  0  0  0  0  0  0  0  0  0  0
   56.6439   -3.7000  -13.3120 C   0  0  0  0  0  0  0  0  0  0  0  0
   55.9760   -4.0174  -12.1384 C   0  0  0  0  0  0  0  0  0  0  0  0
   56.6533   -4.3975  -11.0038 C   0  0  0  0  0  0  0  0  0  0  0  0
   58.0240   -4.4558  -11.0621 C   0  0  0  0  0  0  0  0  0  0  0  0
   58.7012   -4.1376  -12.2403 C   0  0  0  0  0  0  0  0  0  0  0  0
   58.7302   -3.4496  -14.5237 O   0  0  0  0  0  0  0  0  0  0  0  0
   58.7048   -2.1674  -16.5527 C   0  0  0  0  0  0  0  0  0  0  0  0
   58.0220   -3.2352  -15.7215 C   0  0  0  0  0  0  0  0  0  0  0  0
   54.0293   -4.5224   -8.2615 C   0  0  0  0  0  0  0  0  0  0  0  0
   52.7237   -4.0428   -8.1191 C   0  0  0  0  0  0  0  0  0  0  0  0
   51.9482   -4.3076   -7.0147 C   0  0  0  0  0  0  0  0  0  0  0  0
   52.4721   -5.0783   -5.9988 C   0  0  0  0  0  0  0  0  0  0  0  0
   53.7541   -5.5509   -6.1357 C   0  0  0  0  0  0  0  0  0  0  0  0
   54.5355   -5.2834   -7.2498 C   0  0  0  0  0  0  0  0  0  0  0  0
   50.6702   -3.7808   -6.9815 O   0  0  0  0  0  0  0  0  0  0  0  0
   50.3599   -2.4253   -7.1563 C   0  0  0  0  0  0  0  0  0  0  0  0
   54.2620   -6.3259   -5.0995 O   0  0  0  0  0  0  0  0  0  0  0  0
   55.2109   -7.3396   -5.2663 C   0  0  0  0  0  0  0  0  0  0  0  0
 10 11  1  0  0  0
 11  9  1  0  0  0
  9  3  1  0  0  0
  3  4  2  0  0  0
  4  5  1  0  0  0
  5  6  2  0  0  0
  6  1  1  0  0  0
  1  2  2  0  0  0
  2 12  1  0  0  0
 12 13  2  0  0  0
 13 14  1  0  0  0
 14 18  1  0  0  0
 18 19  1  0  0  0
 14 15  2  0  0  0
 15 16  1  0  0  0
 16 20  1  0  0  0
 20 21  1  0  0  0
 16 17  2  0  0  0
  6  7  1  0  0  0
  7  8  2  0  0  0
  8  3  1  0  0  0
 17 12  1  0  0  0
M  END
> <minimizedAffinity>
-7.25972

> <CNNscore>
0.3904458284

> <CNNaffinity>
5.3098688126

> <CNN_VS>
2.0732161999

> <CNNaffinity_variance>
0.2261362821

$$$$
[H]/C(=C(/[H])c1c([H])c(OC([H])([H])[H])c([H])c(OC([H])([H])[H])c1[H])c1c([H])c([H])c(OC([H])([H])C([H])([H])[H])c([H])c1[H]


 21 22  0  0  0  0  0  0  0  0999 V2000
   53.8239   -4.0392   -8.9731 C   0  0  0  0  0  0  0  0  0  0  0  0
   55.0354   -4.4695   -8.7102 C   0  0  0  0  0  0  0  0  0  0  0  0
   50.6415   -3.8032   -6.1401 C   0  0  0  0  0  0  0  0  0  0  0  0
   50.7696   -2.8820   -7.1532 C   0  0  0  0  0  0  0  0  0  0  0  0
   51.8119   -2.9774   -8.0635 C   0  0  0  0  0  0  0  0  0  0  0  0
   52.7449   -3.9846   -7.9880 C   0  0  0  0  0  0  0  0  0  0  0  0
   52.6176   -4.9048   -6.9767 C   0  0  0  0  0  0  0  0  0  0  0  0
   51.5710   -4.8136   -6.0580 C   0  0  0  0  0  0  0  0  0  0  0  0
   49.6146   -3.7494   -5.2045 O   0  0  0  0  0  0  0  0  0  0  0  0
   47.4963   -2.8377   -4.5386 C   0  0  0  0  0  0  0  0  0  0  0  0
   48.8889   -2.5511   -5.0638 C   0  0  0  0  0  0  0  0  0  0  0  0
   56.0849   -4.5095   -9.7171 C   0  0  0  0  0  0  0  0  0  0  0  0
   55.7904   -4.0014  -10.9858 C   0  0  0  0  0  0  0  0  0  0  0  0
   56.7035   -3.9875  -12.0140 C   0  0  0  0  0  0  0  0  0  0  0  0
   57.9666   -4.4941  -11.7938 C   0  0  0  0  0  0  0  0  0  0  0  0
   58.2590   -4.9939  -10.5487 C   0  0  0  0  0  0  0  0  0  0  0  0
   57.3375   -5.0076   -9.5123 C   0  0  0  0  0  0  0  0  0  0  0  0
   56.3018   -3.4602  -13.2275 O   0  0  0  0  0  0  0  0  0  0  0  0
   56.9703   -3.6548  -14.4439 C   0  0  0  0  0  0  0  0  0  0  0  0
   59.5383   -5.4995  -10.3489 O   0  0  0  0  0  0  0  0  0  0  0  0
   59.9573   -6.1426   -9.1798 C   0  0  0  0  0  0  0  0  0  0  0  0
 10 11  1  0  0  0
 11  9  1  0  0  0
  9  3  1  0  0  0
  3  4  2  0  0  0
  4  5  1  0  0  0
  5  6  2  0  0  0
  6  1  1  0  0  0
  1  2  2  0  0  0
  2 12  1  0  0  0
 12 13  2  0  0  0
 13 14  1  0  0  0
 14 18  1  0  0  0
 18 19  1  0  0  0
 14 15  2  0  0  0
 15 16  1  0  0  0
 16 20  1  0  0  0
 20 21  1  0  0  0
 16 17  2  0  0  0
  6  7  1  0  0  0
  7  8  2  0  0  0
  8  3  1  0  0  0
 17 12  1  0  0  0
M  END
> <minimizedAffinity>
-8.73079

> <CNNscore>
0.3860181272

> <CNNaffinity>
5.3246564865

> <CNN_VS>
2.0554139614

> <CNNaffinity_variance>
0.2003182918

$$$$
[H]/C(C(=O)N(C([H])([H])[H])C([H])([H])c1sc2c([H])c([H])c([H])c([H])c2c1C([H])([H])[H])=C(/[H])c1c([H])nc2c(c1[H])C([H])([H])N([H])C([H])([H])C([H])([H])N2[H]


 30 33  0  0  0  0  0  0  0  0999 V2000
   58.4700   -5.5275   -9.8738 N   0  0  0  0  0  0  0  0  0  0  0  0
   58.0592   -4.8153  -11.0532 C   0  0  0  0  0  0  0  0  0  0  0  0
   57.8612   -5.0915   -8.6069 C   0  0  0  0  0  0  0  0  0  0  0  0
   58.3455   -5.3723   -7.5106 O   0  0  0  0  0  0  0  0  0  0  0  0
   56.6062   -4.3544   -8.6951 C   0  0  0  0  0  0  0  0  0  0  0  0
   55.5394   -4.9790   -8.1711 C   0  0  0  0  0  0  0  0  0  0  0  0
   54.1947   -4.3735   -8.1923 C   0  0  0  0  0  0  0  0  0  0  0  0
   54.0326   -3.1135   -8.7235 C   0  0  0  0  0  0  0  0  0  0  0  0
   52.8489   -2.4188   -8.6363 N   0  0  0  0  0  0  0  0  0  0  0  0
   51.8205   -3.0078   -8.0041 C   0  0  0  0  0  0  0  0  0  0  0  0
   51.9689   -4.2767   -7.4781 C   0  0  0  0  0  0  0  0  0  0  0  0
   53.1483   -4.9722   -7.5617 C   0  0  0  0  0  0  0  0  0  0  0  0
   50.8695   -5.0211   -6.7796 C   0  0  0  0  0  0  0  0  0  0  0  0
   50.5785   -4.2104   -5.6304 N   0  0  0  0  0  0  0  0  0  0  0  0
   49.6415   -3.1760   -5.7947 C   0  0  0  0  0  0  0  0  0  0  0  0
   49.5465   -2.3682   -7.0037 C   0  0  0  0  0  0  0  0  0  0  0  0
   50.6533   -2.1687   -7.8621 N   0  0  0  0  0  0  0  0  0  0  0  0
   51.4984   -3.9271   -5.2165 H   0  0  0  0  0  0  0  0  0  0  0  0
   50.6742   -1.3087   -8.4484 H   0  0  0  0  0  0  0  0  0  0  0  0
   59.4171   -6.5133   -9.7918 C   0  0  0  0  0  0  0  0  0  0  0  0
   61.4821   -7.2240   -7.4959 C   0  0  0  0  0  0  0  0  0  0  0  0
   61.8443   -6.9277   -8.9703 C   0  0  0  0  0  0  0  0  0  0  0  0
   60.8730   -6.4066   -9.7608 C   0  0  0  0  0  0  0  0  0  0  0  0
   61.8174   -6.0803  -11.2465 S   0  0  0  0  0  0  0  0  0  0  0  0
   63.3321   -6.6544  -10.7293 C   0  0  0  0  0  0  0  0  0  0  0  0
   64.5841   -6.8038  -11.3505 C   0  0  0  0  0  0  0  0  0  0  0  0
   65.6486   -7.3686  -10.6959 C   0  0  0  0  0  0  0  0  0  0  0  0
   65.3988   -7.7705   -9.3954 C   0  0  0  0  0  0  0  0  0  0  0  0
   64.2087   -7.6332   -8.7960 C   0  0  0  0  0  0  0  0  0  0  0  0
   63.0948   -7.0611   -9.4537 C   0  0  0  0  0  0  0  0  0  0  0  0
 21 22  1  0  0  0
 22 23  2  0  0  0
 23 20  1  0  0  0
 20  1  1  0  0  0
  1  2  1  0  0  0
  1  3  1  0  0  0
  3  4  2  0  0  0
  3  5  1  0  0  0
  5  6  2  0  0  0
  6  7  1  0  0  0
  7  8  2  0  0  0
  8  9  1  0  0  0
  9 10  2  0  0  0
 10 11  1  0  0  0
 11 12  2  0  0  0
 11 13  1  0  0  0
 13 14  1  0  0  0
 14 15  1  0  0  0
 15 16  1  0  0  0
 16 17  1  0  0  0
 23 24  1  0  0  0
 24 25  1  0  0  0
 25 26  2  0  0  0
 26 27  1  0  0  0
 27 28  2  0  0  0
 28 29  1  0  0  0
 29 30  2  0  0  0
 30 22  1  0  0  0
 12  7  1  0  0  0
 30 25  1  0  0  0
 17 10  1  0  0  0
 14 18  1  0  0  0
 17 19  1  0  0  0
M  END
> <minimizedAffinity>
-7.49428

> <CNNscore>
0.5603891611

> <CNNaffinity>
6.5089578629

> <CNN_VS>
3.6475493908

> <CNNaffinity_variance>
0.2642256618

$$$$
[H]/C(C(=O)N(C([H])([H])[H])C([H])([H])c1sc2c([H])c([H])c([H])c([H])c2c1C([H])([H])[H])=C(/[H])c1c([H])nc2c(c1[H])C([H])([H])N([H])C([H])([H])C([H])([H])N2[H]


 30 33  0  0  0  0  0  0  0  0999 V2000
   56.0796   -4.2086   -9.6292 N   0  0  0  0  0  0  0  0  0  0  0  0
   56.0121   -4.4703  -11.0413 C   0  0  0  0  0  0  0  0  0  0  0  0
   57.1077   -4.9485   -8.8800 C   0  0  0  0  0  0  0  0  0  0  0  0
   57.0691   -5.0763   -7.6563 O   0  0  0  0  0  0  0  0  0  0  0  0
   58.2285   -5.4820   -9.6452 C   0  0  0  0  0  0  0  0  0  0  0  0
   59.2207   -6.0106   -8.9109 C   0  0  0  0  0  0  0  0  0  0  0  0
   60.4308   -6.5799   -9.5327 C   0  0  0  0  0  0  0  0  0  0  0  0
   60.9848   -5.9516  -10.6256 C   0  0  0  0  0  0  0  0  0  0  0  0
   62.0119   -6.5023  -11.3558 N   0  0  0  0  0  0  0  0  0  0  0  0
   62.4808   -7.7017  -10.9738 C   0  0  0  0  0  0  0  0  0  0  0  0
   61.9401   -8.3352   -9.8714 C   0  0  0  0  0  0  0  0  0  0  0  0
   60.9147   -7.7898   -9.1415 C   0  0  0  0  0  0  0  0  0  0  0  0
   62.4170   -9.6616   -9.3576 C   0  0  0  0  0  0  0  0  0  0  0  0
   62.1443  -10.5690  -10.4369 N   0  0  0  0  0  0  0  0  0  0  0  0
   63.1332  -10.7064  -11.4259 C   0  0  0  0  0  0  0  0  0  0  0  0
   63.9389   -9.5931  -11.9105 C   0  0  0  0  0  0  0  0  0  0  0  0
   63.4808   -8.2555  -11.8568 N   0  0  0  0  0  0  0  0  0  0  0  0
   61.1818  -10.3469  -10.7860 H   0  0  0  0  0  0  0  0  0  0  0  0
   63.8661   -7.5741  -12.5432 H   0  0  0  0  0  0  0  0  0  0  0  0
   55.2464   -3.4053   -8.8972 C   0  0  0  0  0  0  0  0  0  0  0  0
   53.8883   -5.6547   -7.1262 C   0  0  0  0  0  0  0  0  0  0  0  0
   53.2144   -4.3377   -7.5783 C   0  0  0  0  0  0  0  0  0  0  0  0
   53.8480   -3.6042   -8.5270 C   0  0  0  0  0  0  0  0  0  0  0  0
   52.6146   -2.3409   -8.8242 S   0  0  0  0  0  0  0  0  0  0  0  0
   51.4379   -2.8512   -7.7078 C   0  0  0  0  0  0  0  0  0  0  0  0
   50.1961   -2.3387   -7.2944 C   0  0  0  0  0  0  0  0  0  0  0  0
   49.4644   -2.9396   -6.3025 C   0  0  0  0  0  0  0  0  0  0  0  0
   50.0335   -4.0743   -5.7512 C   0  0  0  0  0  0  0  0  0  0  0  0
   51.2168   -4.5690   -6.1379 C   0  0  0  0  0  0  0  0  0  0  0  0
   51.9925   -3.9619   -7.1530 C   0  0  0  0  0  0  0  0  0  0  0  0
 21 22  1  0  0  0
 22 23  2  0  0  0
 23 20  1  0  0  0
 20  1  1  0  0  0
  1  2  1  0  0  0
  1  3  1  0  0  0
  3  4  2  0  0  0
  3  5  1  0  0  0
  5  6  2  0  0  0
  6  7  1  0  0  0
  7  8  2  0  0  0
  8  9  1  0  0  0
  9 10  2  0  0  0
 10 11  1  0  0  0
 11 12  2  0  0  0
 11 13  1  0  0  0
 13 14  1  0  0  0
 14 15  1  0  0  0
 15 16  1  0  0  0
 16 17  1  0  0  0
 23 24  1  0  0  0
 24 25  1  0  0  0
 25 26  2  0  0  0
 26 27  1  0  0  0
 27 28  2  0  0  0
 28 29  1  0  0  0
 29 30  2  0  0  0
 30 22  1  0  0  0
 12  7  1  0  0  0
 30 25  1  0  0  0
 17 10  1  0  0  0
 14 18  1  0  0  0
 17 19  1  0  0  0
M  END
> <minimizedAffinity>
-9.42919

> <CNNscore>
0.3748079240

> <CNNaffinity>
5.8344545364

> <CNN_VS>
2.1867997646

> <CNNaffinity_variance>
0.1089066416

$$$$
[H]/C(C(=O)N(C([H])([H])[H])C([H])([H])c1sc2c([H])c([H])c([H])c([H])c2c1C([H])([H])[H])=C(/[H])c1c([H])nc2c(c1[H])C([H])([H])N([H])C([H])([H])C([H])([H])N2[H]


 30 33  0  0  0  0  0  0  0  0999 V2000
   55.7730   -4.0979   -8.7194 N   0  0  0  0  0  0  0  0  0  0  0  0
   56.1867   -3.7991   -7.3753 C   0  0  0  0  0  0  0  0  0  0  0  0
   56.8128   -4.6272   -9.6164 C   0  0  0  0  0  0  0  0  0  0  0  0
   56.6959   -4.6159  -10.8417 O   0  0  0  0  0  0  0  0  0  0  0  0
   57.9811   -5.2340   -8.9895 C   0  0  0  0  0  0  0  0  0  0  0  0
   58.9569   -5.6009   -9.8358 C   0  0  0  0  0  0  0  0  0  0  0  0
   60.1983   -6.2407   -9.3620 C   0  0  0  0  0  0  0  0  0  0  0  0
   60.3027   -6.6096   -8.0395 C   0  0  0  0  0  0  0  0  0  0  0  0
   61.4777   -7.0625   -7.4865 N   0  0  0  0  0  0  0  0  0  0  0  0
   62.5566   -7.1416   -8.2827 C   0  0  0  0  0  0  0  0  0  0  0  0
   62.4597   -6.7854   -9.6141 C   0  0  0  0  0  0  0  0  0  0  0  0
   61.2900   -6.3318  -10.1689 C   0  0  0  0  0  0  0  0  0  0  0  0
   63.6034   -6.8657  -10.5817 C   0  0  0  0  0  0  0  0  0  0  0  0
   64.5686   -5.9425  -10.0539 N   0  0  0  0  0  0  0  0  0  0  0  0
   65.4715   -6.4349   -9.0963 C   0  0  0  0  0  0  0  0  0  0  0  0
   65.1000   -7.3994   -8.0690 C   0  0  0  0  0  0  0  0  0  0  0  0
   63.7711   -7.5209   -7.5989 N   0  0  0  0  0  0  0  0  0  0  0  0
   64.0450   -5.0772   -9.7804 H   0  0  0  0  0  0  0  0  0  0  0  0
   63.6196   -7.8929   -6.6384 H   0  0  0  0  0  0  0  0  0  0  0  0
   54.5407   -3.8748   -9.2733 C   0  0  0  0  0  0  0  0  0  0  0  0
   53.3208   -6.0023   -7.2666 C   0  0  0  0  0  0  0  0  0  0  0  0
   52.6968   -4.6288   -7.6091 C   0  0  0  0  0  0  0  0  0  0  0  0
   53.2167   -3.9504   -8.6622 C   0  0  0  0  0  0  0  0  0  0  0  0
   52.0664   -2.5814   -8.7537 S   0  0  0  0  0  0  0  0  0  0  0  0
   51.0631   -2.9900   -7.4430 C   0  0  0  0  0  0  0  0  0  0  0  0
   49.9629   -2.3710   -6.8249 C   0  0  0  0  0  0  0  0  0  0  0  0
   49.3660   -2.9089   -5.7136 C   0  0  0  0  0  0  0  0  0  0  0  0
   49.9207   -4.0919   -5.2574 C   0  0  0  0  0  0  0  0  0  0  0  0
   50.9697   -4.6880   -5.8392 C   0  0  0  0  0  0  0  0  0  0  0  0
   51.6061   -4.1479   -6.9811 C   0  0  0  0  0  0  0  0  0  0  0  0
 21 22  1  0  0  0
 22 23  2  0  0  0
 23 20  1  0  0  0
 20  1  1  0  0  0
  1  2  1  0  0  0
  1  3  1  0  0  0
  3  4  2  0  0  0
  3  5  1  0  0  0
  5  6  2  0  0  0
  6  7  1  0  0  0
  7  8  2  0  0  0
  8  9  1  0  0  0
  9 10  2  0  0  0
 10 11  1  0  0  0
 11 12  2  0  0  0
 11 13  1  0  0  0
 13 14  1  0  0  0
 14 15  1  0  0  0
 15 16  1  0  0  0
 16 17  1  0  0  0
 23 24  1  0  0  0
 24 25  1  0  0  0
 25 26  2  0  0  0
 26 27  1  0  0  0
 27 28  2  0  0  0
 28 29  1  0  0  0
 29 30  2  0  0  0
 30 22  1  0  0  0
 12  7  1  0  0  0
 30 25  1  0  0  0
 17 10  1  0  0  0
 14 18  1  0  0  0
 17 19  1  0  0  0
M  END
> <minimizedAffinity>
-9.77632

> <CNNscore>
0.3342972398

> <CNNaffinity>
5.9414439201

> <CNN_VS>
1.9862083197

> <CNNaffinity_variance>
0.1970925033

$$$$
[H]/C(C(=O)N(C([H])([H])[H])C([H])([H])c1sc2c([H])c([H])c([H])c([H])c2c1C([H])([H])[H])=C(/[H])c1c([H])nc2c(c1[H])C([H])([H])N([H])C([H])([H])C([H])([H])N2[H]


 30 33  0  0  0  0  0  0  0  0999 V2000
   54.2046   -4.8222   -8.3153 N   0  0  0  0  0  0  0  0  0  0  0  0
   55.4624   -5.0859   -7.6707 C   0  0  0  0  0  0  0  0  0  0  0  0
   54.2590   -3.9963   -9.5322 C   0  0  0  0  0  0  0  0  0  0  0  0
   53.2673   -3.4284   -9.9895 O   0  0  0  0  0  0  0  0  0  0  0  0
   55.5396   -3.9237  -10.2257 C   0  0  0  0  0  0  0  0  0  0  0  0
   55.4737   -4.0523  -11.5607 C   0  0  0  0  0  0  0  0  0  0  0  0
   56.6811   -4.0147  -12.4067 C   0  0  0  0  0  0  0  0  0  0  0  0
   57.9187   -3.9268  -11.8095 C   0  0  0  0  0  0  0  0  0  0  0  0
   59.0754   -3.7270  -12.5262 N   0  0  0  0  0  0  0  0  0  0  0  0
   58.9753   -3.6151  -13.8610 C   0  0  0  0  0  0  0  0  0  0  0  0
   57.7398   -3.7138  -14.4714 C   0  0  0  0  0  0  0  0  0  0  0  0
   56.5837   -3.9116  -13.7598 C   0  0  0  0  0  0  0  0  0  0  0  0
   57.5360   -3.6271  -15.9552 C   0  0  0  0  0  0  0  0  0  0  0  0
   57.9723   -2.2997  -16.2873 N   0  0  0  0  0  0  0  0  0  0  0  0
   59.3390   -2.1229  -16.5627 C   0  0  0  0  0  0  0  0  0  0  0  0
   60.3961   -2.8233  -15.8447 C   0  0  0  0  0  0  0  0  0  0  0  0
   60.2190   -3.2985  -14.5239 N   0  0  0  0  0  0  0  0  0  0  0  0
   57.5685   -1.6566  -15.5654 H   0  0  0  0  0  0  0  0  0  0  0  0
   61.0617   -3.4122  -13.9233 H   0  0  0  0  0  0  0  0  0  0  0  0
   52.9599   -5.1922   -7.8804 C   0  0  0  0  0  0  0  0  0  0  0  0
   51.2186   -2.5448   -7.8658 C   0  0  0  0  0  0  0  0  0  0  0  0
   51.1509   -3.6710   -6.8074 C   0  0  0  0  0  0  0  0  0  0  0  0
   52.1285   -4.6108   -6.8301 C   0  0  0  0  0  0  0  0  0  0  0  0
   51.7175   -5.5287   -5.3489 S   0  0  0  0  0  0  0  0  0  0  0  0
   50.3439   -4.6507   -4.8654 C   0  0  0  0  0  0  0  0  0  0  0  0
   49.4112   -4.7919   -3.8235 C   0  0  0  0  0  0  0  0  0  0  0  0
   48.3345   -3.9512   -3.7035 C   0  0  0  0  0  0  0  0  0  0  0  0
   48.2413   -2.9662   -4.6712 C   0  0  0  0  0  0  0  0  0  0  0  0
   49.1247   -2.8250   -5.6682 C   0  0  0  0  0  0  0  0  0  0  0  0
   50.2380   -3.6848   -5.8165 C   0  0  0  0  0  0  0  0  0  0  0  0
 21 22  1  0  0  0
 22 23  2  0  0  0
 23 20  1  0  0  0
 20  1  1  0  0  0
  1  2  1  0  0  0
  1  3  1  0  0  0
  3  4  2  0  0  0
  3  5  1  0  0  0
  5  6  2  0  0  0
  6  7  1  0  0  0
  7  8  2  0  0  0
  8  9  1  0  0  0
  9 10  2  0  0  0
 10 11  1  0  0  0
 11 12  2  0  0  0
 11 13  1  0  0  0
 13 14  1  0  0  0
 14 15  1  0  0  0
 15 16  1  0  0  0
 16 17  1  0  0  0
 23 24  1  0  0  0
 24 25  1  0  0  0
 25 26  2  0  0  0
 26 27  1  0  0  0
 27 28  2  0  0  0
 28 29  1  0  0  0
 29 30  2  0  0  0
 30 22  1  0  0  0
 12  7  1  0  0  0
 30 25  1  0  0  0
 17 10  1  0  0  0
 14 18  1  0  0  0
 17 19  1  0  0  0
M  END
> <minimizedAffinity>
-9.68794

> <CNNscore>
0.3141838908

> <CNNaffinity>
6.3016610146

> <CNN_VS>
1.9798803329

> <CNNaffinity_variance>
0.1330966502

$$$$
[H]/C(C(=O)N(C([H])([H])[H])C([H])([H])c1sc2c([H])c([H])c([H])c([H])c2c1C([H])([H])[H])=C(/[H])c1c([H])nc2c(c1[H])C([H])([H])N([H])C([H])([H])C([H])([H])N2[H]


 30 33  0  0  0  0  0  0  0  0999 V2000
   56.1359   -4.2722   -8.6006 N   0  0  0  0  0  0  0  0  0  0  0  0
   56.4752   -4.2422   -7.2037 C   0  0  0  0  0  0  0  0  0  0  0  0
   57.2013   -4.7062   -9.5184 C   0  0  0  0  0  0  0  0  0  0  0  0
   57.1676   -4.4727  -10.7265 O   0  0  0  0  0  0  0  0  0  0  0  0
   58.2883   -5.4918   -8.9461 C   0  0  0  0  0  0  0  0  0  0  0  0
   59.2161   -5.9065   -9.8236 C   0  0  0  0  0  0  0  0  0  0  0  0
   60.3722   -6.7219   -9.4068 C   0  0  0  0  0  0  0  0  0  0  0  0
   60.4258   -8.0489   -9.7707 C   0  0  0  0  0  0  0  0  0  0  0  0
   61.3834   -8.9113   -9.2905 N   0  0  0  0  0  0  0  0  0  0  0  0
   62.2947   -8.4230   -8.4330 C   0  0  0  0  0  0  0  0  0  0  0  0
   62.2572   -7.0902   -8.0707 C   0  0  0  0  0  0  0  0  0  0  0  0
   61.3028   -6.2273   -8.5464 C   0  0  0  0  0  0  0  0  0  0  0  0
   63.2474   -6.4530   -7.1411 C   0  0  0  0  0  0  0  0  0  0  0  0
   63.0521   -7.1469   -5.8990 N   0  0  0  0  0  0  0  0  0  0  0  0
   63.7799   -8.3332   -5.7046 C   0  0  0  0  0  0  0  0  0  0  0  0
   64.0422   -9.2935   -6.7689 C   0  0  0  0  0  0  0  0  0  0  0  0
   63.1939   -9.4169   -7.8945 N   0  0  0  0  0  0  0  0  0  0  0  0
   62.0175   -7.2203   -5.7503 H   0  0  0  0  0  0  0  0  0  0  0  0
   63.1674  -10.3296   -8.3945 H   0  0  0  0  0  0  0  0  0  0  0  0
   54.9583   -3.8719   -9.1734 C   0  0  0  0  0  0  0  0  0  0  0  0
   53.6235   -6.0100   -7.2529 C   0  0  0  0  0  0  0  0  0  0  0  0
   53.0074   -4.6466   -7.6464 C   0  0  0  0  0  0  0  0  0  0  0  0
   53.5940   -3.9643   -8.6613 C   0  0  0  0  0  0  0  0  0  0  0  0
   52.4346   -2.6122   -8.8432 S   0  0  0  0  0  0  0  0  0  0  0  0
   51.3431   -3.0307   -7.6083 C   0  0  0  0  0  0  0  0  0  0  0  0
   50.1918   -2.4254   -7.0757 C   0  0  0  0  0  0  0  0  0  0  0  0
   49.5222   -2.9681   -6.0091 C   0  0  0  0  0  0  0  0  0  0  0  0
   50.0582   -4.1415   -5.5081 C   0  0  0  0  0  0  0  0  0  0  0  0
   51.1554   -4.7246   -6.0084 C   0  0  0  0  0  0  0  0  0  0  0  0
   51.8667   -4.1792   -7.1026 C   0  0  0  0  0  0  0  0  0  0  0  0
 21 22  1  0  0  0
 22 23  2  0  0  0
 23 20  1  0  0  0
 20  1  1  0  0  0
  1  2  1  0  0  0
  1  3  1  0  0  0
  3  4  2  0  0  0
  3  5  1  0  0  0
  5  6  2  0  0  0
  6  7  1  0  0  0
  7  8  2  0  0  0
  8  9  1  0  0  0
  9 10  2  0  0  0
 10 11  1  0  0  0
 11 12  2  0  0  0
 11 13  1  0  0  0
 13 14  1  0  0  0
 14 15  1  0  0  0
 15 16  1  0  0  0
 16 17  1  0  0  0
 23 24  1  0  0  0
 24 25  1  0  0  0
 25 26  2  0  0  0
 26 27  1  0  0  0
 27 28  2  0  0  0
 28 29  1  0  0  0
 29 30  2  0  0  0
 30 22  1  0  0  0
 12  7  1  0  0  0
 30 25  1  0  0  0
 17 10  1  0  0  0
 14 18  1  0  0  0
 17 19  1  0  0  0
M  END
> <minimizedAffinity>
-9.78049

> <CNNscore>
0.3086818457

> <CNNaffinity>
5.8275017738

> <CNN_VS>
1.7988439798

> <CNNaffinity_variance>
0.0906747431

$$$$
[H]/C(C(=O)N(C([H])([H])[H])C([H])([H])c1sc2c([H])c([H])c([H])c([H])c2c1C([H])([H])[H])=C(/[H])c1c([H])nc2c(c1[H])C([H])([H])N([H])C([H])([H])C([H])([H])N2[H]


 30 33  0  0  0  0  0  0  0  0999 V2000
   56.0319   -4.2573   -8.6776 N   0  0  0  0  0  0  0  0  0  0  0  0
   56.3889   -4.0177   -7.3056 C   0  0  0  0  0  0  0  0  0  0  0  0
   57.1158   -4.7192   -9.5594 C   0  0  0  0  0  0  0  0  0  0  0  0
   57.0441   -4.6489  -10.7863 O   0  0  0  0  0  0  0  0  0  0  0  0
   58.2737   -5.3322   -8.9193 C   0  0  0  0  0  0  0  0  0  0  0  0
   59.2701   -5.6762   -9.7511 C   0  0  0  0  0  0  0  0  0  0  0  0
   60.5047   -6.3187   -9.2630 C   0  0  0  0  0  0  0  0  0  0  0  0
   61.5103   -6.6101  -10.1573 C   0  0  0  0  0  0  0  0  0  0  0  0
   62.6184   -7.3481   -9.8124 N   0  0  0  0  0  0  0  0  0  0  0  0
   62.7066   -7.7947   -8.5487 C   0  0  0  0  0  0  0  0  0  0  0  0
   61.7089   -7.4978   -7.6402 C   0  0  0  0  0  0  0  0  0  0  0  0
   60.6015   -6.7633   -7.9808 C   0  0  0  0  0  0  0  0  0  0  0  0
   61.7358   -7.9316   -6.2043 C   0  0  0  0  0  0  0  0  0  0  0  0
   61.7123   -9.3658   -6.2758 N   0  0  0  0  0  0  0  0  0  0  0  0
   62.9486  -10.0232   -6.3961 C   0  0  0  0  0  0  0  0  0  0  0  0
   64.0530   -9.5085   -7.1954 C   0  0  0  0  0  0  0  0  0  0  0  0
   63.8436   -8.6505   -8.3007 N   0  0  0  0  0  0  0  0  0  0  0  0
   60.9904   -9.6237   -6.9900 H   0  0  0  0  0  0  0  0  0  0  0  0
   64.5590   -8.6366   -9.0570 H   0  0  0  0  0  0  0  0  0  0  0  0
   54.8161   -4.0325   -9.2662 C   0  0  0  0  0  0  0  0  0  0  0  0
   53.5326   -6.1368   -7.2748 C   0  0  0  0  0  0  0  0  0  0  0  0
   52.9245   -4.7637   -7.6460 C   0  0  0  0  0  0  0  0  0  0  0  0
   53.4757   -4.0968   -8.6906 C   0  0  0  0  0  0  0  0  0  0  0  0
   52.3347   -2.7237   -8.8250 S   0  0  0  0  0  0  0  0  0  0  0  0
   51.2945   -3.1163   -7.5385 C   0  0  0  0  0  0  0  0  0  0  0  0
   50.1809   -2.4871   -6.9558 C   0  0  0  0  0  0  0  0  0  0  0  0
   49.5518   -3.0125   -5.8563 C   0  0  0  0  0  0  0  0  0  0  0  0
   50.0884   -4.1938   -5.3750 C   0  0  0  0  0  0  0  0  0  0  0  0
   51.1500   -4.7997   -5.9230 C   0  0  0  0  0  0  0  0  0  0  0  0
   51.8195   -4.2724   -7.0520 C   0  0  0  0  0  0  0  0  0  0  0  0
 21 22  1  0  0  0
 22 23  2  0  0  0
 23 20  1  0  0  0
 20  1  1  0  0  0
  1  2  1  0  0  0
  1  3  1  0  0  0
  3  4  2  0  0  0
  3  5  1  0  0  0
  5  6  2  0  0  0
  6  7  1  0  0  0
  7  8  2  0  0  0
  8  9  1  0  0  0
  9 10  2  0  0  0
 10 11  1  0  0  0
 11 12  2  0  0  0
 11 13  1  0  0  0
 13 14  1  0  0  0
 14 15  1  0  0  0
 15 16  1  0  0  0
 16 17  1  0  0  0
 23 24  1  0  0  0
 24 25  1  0  0  0
 25 26  2  0  0  0
 26 27  1  0  0  0
 27 28  2  0  0  0
 28 29  1  0  0  0
 29 30  2  0  0  0
 30 22  1  0  0  0
 12  7  1  0  0  0
 30 25  1  0  0  0
 17 10  1  0  0  0
 14 18  1  0  0  0
 17 19  1  0  0  0
M  END
> <minimizedAffinity>
-9.55686

> <CNNscore>
0.2833219469

> <CNNaffinity>
5.8249177933

> <CNN_VS>
1.6503270864

> <CNNaffinity_variance>
0.0774260387

$$$$
[H]/C(C(=O)N(C([H])([H])[H])C([H])([H])c1sc2c([H])c([H])c([H])c([H])c2c1C([H])([H])[H])=C(/[H])c1c([H])nc2c(c1[H])C([H])([H])N([H])C([H])([H])C([H])([H])N2[H]


 30 33  0  0  0  0  0  0  0  0999 V2000
   57.2780   -5.1856   -7.8659 N   0  0  0  0  0  0  0  0  0  0  0  0
   57.0159   -5.9041   -6.6484 C   0  0  0  0  0  0  0  0  0  0  0  0
   56.0980   -4.7549   -8.6326 C   0  0  0  0  0  0  0  0  0  0  0  0
   56.1627   -4.4346   -9.8194 O   0  0  0  0  0  0  0  0  0  0  0  0
   54.8367   -4.6589   -7.9074 C   0  0  0  0  0  0  0  0  0  0  0  0
   53.8657   -3.9793   -8.5387 C   0  0  0  0  0  0  0  0  0  0  0  0
   52.5353   -3.7807   -7.9341 C   0  0  0  0  0  0  0  0  0  0  0  0
   51.8818   -2.5837   -8.1241 C   0  0  0  0  0  0  0  0  0  0  0  0
   50.7176   -2.2619   -7.4665 N   0  0  0  0  0  0  0  0  0  0  0  0
   50.2121   -3.1628   -6.6080 C   0  0  0  0  0  0  0  0  0  0  0  0
   50.8534   -4.3719   -6.4189 C   0  0  0  0  0  0  0  0  0  0  0  0
   52.0155   -4.6958   -7.0719 C   0  0  0  0  0  0  0  0  0  0  0  0
   50.3487   -5.4463   -5.5015 C   0  0  0  0  0  0  0  0  0  0  0  0
   50.3858   -4.8368   -4.2016 N   0  0  0  0  0  0  0  0  0  0  0  0
   49.2556   -4.1021   -3.8043 C   0  0  0  0  0  0  0  0  0  0  0  0
   48.4824   -3.2694   -4.7164 C   0  0  0  0  0  0  0  0  0  0  0  0
   49.0521   -2.7023   -5.8808 N   0  0  0  0  0  0  0  0  0  0  0  0
   51.3023   -4.3347   -4.1264 H   0  0  0  0  0  0  0  0  0  0  0  0
   48.6284   -1.8317   -6.2635 H   0  0  0  0  0  0  0  0  0  0  0  0
   58.5009   -4.9248   -8.4243 C   0  0  0  0  0  0  0  0  0  0  0  0
   59.5769   -5.2134  -11.3908 C   0  0  0  0  0  0  0  0  0  0  0  0
   60.2031   -5.8730  -10.1394 C   0  0  0  0  0  0  0  0  0  0  0  0
   59.4823   -5.8458   -8.9907 C   0  0  0  0  0  0  0  0  0  0  0  0
   60.5170   -6.8669   -7.9455 S   0  0  0  0  0  0  0  0  0  0  0  0
   61.7621   -7.2042   -9.0533 C   0  0  0  0  0  0  0  0  0  0  0  0
   62.9831   -7.8955   -8.9697 C   0  0  0  0  0  0  0  0  0  0  0  0
   63.8465   -7.9609  -10.0331 C   0  0  0  0  0  0  0  0  0  0  0  0
   63.4268   -7.3063  -11.1780 C   0  0  0  0  0  0  0  0  0  0  0  0
   62.2658   -6.6440  -11.2661 C   0  0  0  0  0  0  0  0  0  0  0  0
   61.3634   -6.5565  -10.1804 C   0  0  0  0  0  0  0  0  0  0  0  0
 21 22  1  0  0  0
 22 23  2  0  0  0
 23 20  1  0  0  0
 20  1  1  0  0  0
  1  2  1  0  0  0
  1  3  1  0  0  0
  3  4  2  0  0  0
  3  5  1  0  0  0
  5  6  2  0  0  0
  6  7  1  0  0  0
  7  8  2  0  0  0
  8  9  1  0  0  0
  9 10  2  0  0  0
 10 11  1  0  0  0
 11 12  2  0  0  0
 11 13  1  0  0  0
 13 14  1  0  0  0
 14 15  1  0  0  0
 15 16  1  0  0  0
 16 17  1  0  0  0
 23 24  1  0  0  0
 24 25  1  0  0  0
 25 26  2  0  0  0
 26 27  1  0  0  0
 27 28  2  0  0  0
 28 29  1  0  0  0
 29 30  2  0  0  0
 30 22  1  0  0  0
 12  7  1  0  0  0
 30 25  1  0  0  0
 17 10  1  0  0  0
 14 18  1  0  0  0
 17 19  1  0  0  0
M  END
> <minimizedAffinity>
-6.68360

> <CNNscore>
0.2352782190

> <CNNaffinity>
6.2190070152

> <CNN_VS>
1.4631968737

> <CNNaffinity_variance>
0.1650510132

$$$$
[H]/C(C(=O)N(C([H])([H])[H])C([H])([H])c1sc2c([H])c([H])c([H])c([H])c2c1C([H])([H])[H])=C(/[H])c1c([H])nc2c(c1[H])C([H])([H])N([H])C([H])([H])C([H])([H])N2[H]


 30 33  0  0  0  0  0  0  0  0999 V2000
   56.9434   -4.7980   -8.1154 N   0  0  0  0  0  0  0  0  0  0  0  0
   58.1729   -5.4600   -8.4578 C   0  0  0  0  0  0  0  0  0  0  0  0
   56.2829   -4.0536   -9.1995 C   0  0  0  0  0  0  0  0  0  0  0  0
   55.4305   -3.1919   -8.9848 O   0  0  0  0  0  0  0  0  0  0  0  0
   56.6343   -4.4232  -10.5656 C   0  0  0  0  0  0  0  0  0  0  0  0
   55.9673   -3.7621  -11.5252 C   0  0  0  0  0  0  0  0  0  0  0  0
   56.1970   -4.0286  -12.9575 C   0  0  0  0  0  0  0  0  0  0  0  0
   55.6784   -5.1732  -13.5205 C   0  0  0  0  0  0  0  0  0  0  0  0
   55.9805   -5.5720  -14.8016 N   0  0  0  0  0  0  0  0  0  0  0  0
   56.8169   -4.8026  -15.5177 C   0  0  0  0  0  0  0  0  0  0  0  0
   57.3335   -3.6458  -14.9665 C   0  0  0  0  0  0  0  0  0  0  0  0
   57.0356   -3.2455  -13.6886 C   0  0  0  0  0  0  0  0  0  0  0  0
   58.2525   -2.7138  -15.6995 C   0  0  0  0  0  0  0  0  0  0  0  0
   59.4168   -3.5122  -15.9631 N   0  0  0  0  0  0  0  0  0  0  0  0
   59.4158   -4.2806  -17.1397 C   0  0  0  0  0  0  0  0  0  0  0  0
   58.2303   -4.9546  -17.6531 C   0  0  0  0  0  0  0  0  0  0  0  0
   57.1660   -5.3491  -16.8084 N   0  0  0  0  0  0  0  0  0  0  0  0
   59.6344   -4.0341  -15.0811 H   0  0  0  0  0  0  0  0  0  0  0  0
   56.5667   -6.1455  -17.1090 H   0  0  0  0  0  0  0  0  0  0  0  0
   56.3620   -4.7239   -6.8777 C   0  0  0  0  0  0  0  0  0  0  0  0
   55.8472   -6.5373   -4.3307 C   0  0  0  0  0  0  0  0  0  0  0  0
   54.7512   -5.8794   -5.2019 C   0  0  0  0  0  0  0  0  0  0  0  0
   55.1330   -5.3411   -6.3869 C   0  0  0  0  0  0  0  0  0  0  0  0
   53.5341   -4.9060   -7.0649 S   0  0  0  0  0  0  0  0  0  0  0  0
   52.5506   -5.4243   -5.7783 C   0  0  0  0  0  0  0  0  0  0  0  0
   51.1703   -5.3662   -5.5190 C   0  0  0  0  0  0  0  0  0  0  0  0
   50.6409   -5.8192   -4.3379 C   0  0  0  0  0  0  0  0  0  0  0  0
   51.5569   -6.3330   -3.4367 C   0  0  0  0  0  0  0  0  0  0  0  0
   52.8738   -6.3911   -3.6748 C   0  0  0  0  0  0  0  0  0  0  0  0
   53.4432   -5.9230   -4.8820 C   0  0  0  0  0  0  0  0  0  0  0  0
 21 22  1  0  0  0
 22 23  2  0  0  0
 23 20  1  0  0  0
 20  1  1  0  0  0
  1  2  1  0  0  0
  1  3  1  0  0  0
  3  4  2  0  0  0
  3  5  1  0  0  0
  5  6  2  0  0  0
  6  7  1  0  0  0
  7  8  2  0  0  0
  8  9  1  0  0  0
  9 10  2  0  0  0
 10 11  1  0  0  0
 11 12  2  0  0  0
 11 13  1  0  0  0
 13 14  1  0  0  0
 14 15  1  0  0  0
 15 16  1  0  0  0
 16 17  1  0  0  0
 23 24  1  0  0  0
 24 25  1  0  0  0
 25 26  2  0  0  0
 26 27  1  0  0  0
 27 28  2  0  0  0
 28 29  1  0  0  0
 29 30  2  0  0  0
 30 22  1  0  0  0
 12  7  1  0  0  0
 30 25  1  0  0  0
 17 10  1  0  0  0
 14 18  1  0  0  0
 17 19  1  0  0  0
M  END
> <minimizedAffinity>
-6.96199

> <CNNscore>
0.2145619243

> <CNNaffinity>
6.0003027916

> <CNN_VS>
1.2874364853

> <CNNaffinity_variance>
0.1158972532

$$$$
[H]/C(C(=O)N(C([H])([H])[H])C([H])([H])c1sc2c([H])c([H])c([H])c([H])c2c1C([H])([H])[H])=C(/[H])c1c([H])nc2c(c1[H])C([H])([H])N([H])C([H])([H])C([H])([H])N2[H]


 30 33  0  0  0  0  0  0  0  0999 V2000
   54.5078   -5.8055   -7.0601 N   0  0  0  0  0  0  0  0  0  0  0  0
   55.1157   -6.8841   -6.3292 C   0  0  0  0  0  0  0  0  0  0  0  0
   55.4243   -4.7859   -7.5950 C   0  0  0  0  0  0  0  0  0  0  0  0
   55.0396   -3.6693   -7.9423 O   0  0  0  0  0  0  0  0  0  0  0  0
   56.8203   -5.1729   -7.7613 C   0  0  0  0  0  0  0  0  0  0  0  0
   57.3077   -5.0312   -9.0044 C   0  0  0  0  0  0  0  0  0  0  0  0
   58.6978   -5.3909   -9.3411 C   0  0  0  0  0  0  0  0  0  0  0  0
   59.1390   -5.2325  -10.6358 C   0  0  0  0  0  0  0  0  0  0  0  0
   60.3630   -5.6910  -11.0635 N   0  0  0  0  0  0  0  0  0  0  0  0
   61.1463   -6.3164  -10.1693 C   0  0  0  0  0  0  0  0  0  0  0  0
   60.7183   -6.4700   -8.8646 C   0  0  0  0  0  0  0  0  0  0  0  0
   59.4975   -6.0153   -8.4348 C   0  0  0  0  0  0  0  0  0  0  0  0
   61.5351   -7.1309   -7.7938 C   0  0  0  0  0  0  0  0  0  0  0  0
   61.6900   -8.4804   -8.2602 N   0  0  0  0  0  0  0  0  0  0  0  0
   62.7743   -8.7443   -9.1143 C   0  0  0  0  0  0  0  0  0  0  0  0
   63.2289   -7.8140  -10.1397 C   0  0  0  0  0  0  0  0  0  0  0  0
   62.3629   -6.8611  -10.7259 N   0  0  0  0  0  0  0  0  0  0  0  0
   60.7523   -8.7920   -8.6085 H   0  0  0  0  0  0  0  0  0  0  0  0
   62.5831   -6.5177  -11.6837 H   0  0  0  0  0  0  0  0  0  0  0  0
   53.1692   -5.5859   -7.2478 C   0  0  0  0  0  0  0  0  0  0  0  0
   51.5853   -2.9208   -7.9031 C   0  0  0  0  0  0  0  0  0  0  0  0
   51.3076   -3.8601   -6.7058 C   0  0  0  0  0  0  0  0  0  0  0  0
   52.2277   -4.8195   -6.4364 C   0  0  0  0  0  0  0  0  0  0  0  0
   51.5610   -5.4755   -4.9097 S   0  0  0  0  0  0  0  0  0  0  0  0
   50.1804   -4.4916   -4.7789 C   0  0  0  0  0  0  0  0  0  0  0  0
   49.1018   -4.4365   -3.8792 C   0  0  0  0  0  0  0  0  0  0  0  0
   48.0647   -3.5563   -4.0531 C   0  0  0  0  0  0  0  0  0  0  0  0
   48.1631   -2.7371   -5.1642 C   0  0  0  0  0  0  0  0  0  0  0  0
   49.1864   -2.7836   -6.0273 C   0  0  0  0  0  0  0  0  0  0  0  0
   50.2627   -3.6881   -5.8727 C   0  0  0  0  0  0  0  0  0  0  0  0
 21 22  1  0  0  0
 22 23  2  0  0  0
 23 20  1  0  0  0
 20  1  1  0  0  0
  1  2  1  0  0  0
  1  3  1  0  0  0
  3  4  2  0  0  0
  3  5  1  0  0  0
  5  6  2  0  0  0
  6  7  1  0  0  0
  7  8  2  0  0  0
  8  9  1  0  0  0
  9 10  2  0  0  0
 10 11  1  0  0  0
 11 12  2  0  0  0
 11 13  1  0  0  0
 13 14  1  0  0  0
 14 15  1  0  0  0
 15 16  1  0  0  0
 16 17  1  0  0  0
 23 24  1  0  0  0
 24 25  1  0  0  0
 25 26  2  0  0  0
 26 27  1  0  0  0
 27 28  2  0  0  0
 28 29  1  0  0  0
 29 30  2  0  0  0
 30 22  1  0  0  0
 12  7  1  0  0  0
 30 25  1  0  0  0
 17 10  1  0  0  0
 14 18  1  0  0  0
 17 19  1  0  0  0
M  END
> <minimizedAffinity>
-8.83279

> <CNNscore>
0.2057157755

> <CNNaffinity>
5.7142305374

> <CNN_VS>
1.1755073071

> <CNNaffinity_variance>
0.0800549388

$$$$
[H]c1c([H])c([H])c(C([H])([H])N(C([H])([H])[H])C([H])([H])C([H])([H])OC(=O)C2=C(C([H])([H])[H])N=C(C([H])([H])[H])C([H])(C(=O)OC([H])([H])[H])C2([H])c2c([H])c([H])c([H])c([N+](=O)[O-])c2[H])c([H])c1[H]


 35 37  0  0  0  0  0  0  0  0999 V2000
   52.3603   -4.7314   -7.4845 C   0  0  0  0  0  0  0  0  0  0  0  0
   51.8015   -5.9301   -6.8507 C   0  0  0  0  0  0  0  0  0  0  0  0
   50.3660   -6.2755   -7.2124 C   0  0  0  0  0  0  0  0  0  0  0  0
   52.3990   -6.6886   -6.0455 N   0  0  0  0  0  0  0  0  0  0  0  0
   53.7371   -6.4382   -5.6625 C   0  0  0  0  0  0  0  0  0  0  0  0
   54.3599   -7.3902   -4.6756 C   0  0  0  0  0  0  0  0  0  0  0  0
   54.3718   -5.3970   -6.1586 C   0  0  0  0  0  0  0  0  0  0  0  0
   53.7537   -4.4649   -7.1542 C   0  0  0  0  0  0  0  0  0  0  0  0
   54.6450   -4.4301   -8.3531 C   0  0  0  0  0  0  0  0  0  0  0  0
   54.2558   -3.9144   -9.5584 C   0  0  0  0  0  0  0  0  0  0  0  0
   55.1112   -3.8785  -10.6409 C   0  0  0  0  0  0  0  0  0  0  0  0
   56.4022   -4.3783  -10.5069 C   0  0  0  0  0  0  0  0  0  0  0  0
   56.8052   -4.9027   -9.2894 C   0  0  0  0  0  0  0  0  0  0  0  0
   55.9190   -4.9210   -8.2284 C   0  0  0  0  0  0  0  0  0  0  0  0
   58.1268   -5.4062   -9.1764 N   0  0  0  0  0  0  0  0  0  0  0  0
   58.5918   -6.0610  -10.1224 O   0  0  0  0  0  0  0  0  0  0  0  0
   58.9086   -5.2030   -8.0746 O   0  0  0  0  0  0  0  0  0  0  0  0
   51.4422   -3.5967   -7.0858 C   0  0  0  0  0  0  0  0  0  0  0  0
   51.3036   -2.5887   -7.7781 O   0  0  0  0  0  0  0  0  0  0  0  0
   49.4981   -3.0649   -5.7201 C   0  0  0  0  0  0  0  0  0  0  0  0
   50.7484   -3.7230   -5.9001 O   0  0  0  0  0  0  0  0  0  0  0  0
   55.7470   -5.1343   -5.7655 C   0  0  0  0  0  0  0  0  0  0  0  0
   56.6405   -5.9709   -6.1704 O   0  0  0  0  0  0  0  0  0  0  0  0
   56.2430   -4.0987   -5.0083 O   0  0  0  0  0  0  0  0  0  0  0  0
   56.0586   -4.1607   -3.5834 C   0  0  0  0  0  0  0  0  0  0  0  0
   56.6456   -5.3717   -2.9779 C   0  0  0  0  0  0  0  0  0  0  0  0
   56.4437   -5.6327   -1.6109 N   0  0  0  0  0  0  0  0  0  0  0  0
   57.0167   -4.8271   -0.6291 C   0  0  0  0  0  0  0  0  0  0  0  0
   56.5972   -7.0405   -1.3668 C   0  0  0  0  0  0  0  0  0  0  0  0
   57.9649   -7.5523   -1.5792 C   0  0  0  0  0  0  0  0  0  0  0  0
   59.0365   -7.2658   -0.7534 C   0  0  0  0  0  0  0  0  0  0  0  0
   60.2999   -7.7647   -0.9871 C   0  0  0  0  0  0  0  0  0  0  0  0
   60.5036   -8.5793   -2.0839 C   0  0  0  0  0  0  0  0  0  0  0  0
   59.4483   -8.8762   -2.9183 C   0  0  0  0  0  0  0  0  0  0  0  0
   58.2069   -8.3695   -2.6653 C   0  0  0  0  0  0  0  0  0  0  0  0
 20 21  1  0  0  0
 21 18  1  0  0  0
 18 19  2  0  0  0
 18  1  1  0  0  0
  1  2  1  0  0  0
  2  3  1  0  0  0
  2  4  2  0  0  0
  4  5  1  0  0  0
  5  6  1  0  0  0
  5  7  2  0  0  0
  7 22  1  0  0  0
 22 23  2  0  0  0
 22 24  1  0  0  0
 24 25  1  0  0  0
 25 26  1  0  0  0
 26 27  1  0  0  0
 27 28  1  0  0  0
 27 29  1  0  0  0
 29 30  1  0  0  0
 30 31  2  0  0  0
 31 32  1  0  0  0
 32 33  2  0  0  0
 33 34  1  0  0  0
 34 35  2  0  0  0
  7  8  1  0  0  0
  8  9  1  0  0  0
  9 10  2  0  0  0
 10 11  1  0  0  0
 11 12  2  0  0  0
 12 13  1  0  0  0
 13 15  1  0  0  0
 15 16  2  0  0  0
 15 17  1  0  0  0
 13 14  2  0  0  0
  8  1  1  0  0  0
 14  9  1  0  0  0
 35 30  1  0  0  0
M  CHG 1  15   1
M  CHG 1  17  -1
M  END
> <minimizedAffinity>
-7.79659

> <CNNscore>
0.4795433581

> <CNNaffinity>
6.8786506653

> <CNN_VS>
3.2986111641

> <CNNaffinity_variance>
0.0842041373

$$$$
[H]c1c([H])c([H])c(C([H])([H])N(C([H])([H])[H])C([H])([H])C([H])([H])OC(=O)C2=C(C([H])([H])[H])N=C(C([H])([H])[H])C([H])(C(=O)OC([H])([H])[H])C2([H])c2c([H])c([H])c([H])c([N+](=O)[O-])c2[H])c([H])c1[H]


 35 37  0  0  0  0  0  0  0  0999 V2000
   52.4120   -4.7872   -7.4321 C   0  0  0  0  0  0  0  0  0  0  0  0
   51.8443   -5.9949   -6.8239 C   0  0  0  0  0  0  0  0  0  0  0  0
   50.4198   -6.3439   -7.2236 C   0  0  0  0  0  0  0  0  0  0  0  0
   52.4261   -6.7584   -6.0119 N   0  0  0  0  0  0  0  0  0  0  0  0
   53.7533   -6.5051   -5.5941 C   0  0  0  0  0  0  0  0  0  0  0  0
   54.3570   -7.4637   -4.6018 C   0  0  0  0  0  0  0  0  0  0  0  0
   54.3943   -5.4559   -6.0646 C   0  0  0  0  0  0  0  0  0  0  0  0
   53.7956   -4.5171   -7.0656 C   0  0  0  0  0  0  0  0  0  0  0  0
   54.7154   -4.4660   -8.2422 C   0  0  0  0  0  0  0  0  0  0  0  0
   54.3692   -3.8973   -9.4368 C   0  0  0  0  0  0  0  0  0  0  0  0
   55.2505   -3.8481  -10.4978 C   0  0  0  0  0  0  0  0  0  0  0  0
   56.5235   -4.3892  -10.3527 C   0  0  0  0  0  0  0  0  0  0  0  0
   56.8829   -4.9674   -9.1460 C   0  0  0  0  0  0  0  0  0  0  0  0
   55.9719   -4.9974   -8.1065 C   0  0  0  0  0  0  0  0  0  0  0  0
   58.1869   -5.5124   -9.0213 N   0  0  0  0  0  0  0  0  0  0  0  0
   58.8331   -5.2667   -7.9908 O   0  0  0  0  0  0  0  0  0  0  0  0
   58.7617   -6.2939   -9.9833 O   0  0  0  0  0  0  0  0  0  0  0  0
   51.4786   -3.6612   -7.0448 C   0  0  0  0  0  0  0  0  0  0  0  0
   50.8153   -3.6839   -6.0084 O   0  0  0  0  0  0  0  0  0  0  0  0
   50.3850   -1.5902   -7.7104 C   0  0  0  0  0  0  0  0  0  0  0  0
   51.3875   -2.5838   -7.9017 O   0  0  0  0  0  0  0  0  0  0  0  0
   55.7582   -5.1902   -5.6356 C   0  0  0  0  0  0  0  0  0  0  0  0
   56.0567   -3.9662   -5.3618 O   0  0  0  0  0  0  0  0  0  0  0  0
   56.7982   -6.0759   -5.4752 O   0  0  0  0  0  0  0  0  0  0  0  0
   57.2283   -6.3703   -4.1349 C   0  0  0  0  0  0  0  0  0  0  0  0
   58.3028   -7.3804   -4.0827 C   0  0  0  0  0  0  0  0  0  0  0  0
   59.0292   -7.5614   -2.8922 N   0  0  0  0  0  0  0  0  0  0  0  0
   59.1639   -6.5309   -1.9642 C   0  0  0  0  0  0  0  0  0  0  0  0
   60.2605   -8.2423   -3.1839 C   0  0  0  0  0  0  0  0  0  0  0  0
   60.3225   -9.6320   -2.6913 C   0  0  0  0  0  0  0  0  0  0  0  0
   60.4217   -9.9770   -1.3558 C   0  0  0  0  0  0  0  0  0  0  0  0
   60.4769  -11.2888   -0.9367 C   0  0  0  0  0  0  0  0  0  0  0  0
   60.4315  -12.2944   -1.8826 C   0  0  0  0  0  0  0  0  0  0  0  0
   60.3326  -11.9705   -3.2180 C   0  0  0  0  0  0  0  0  0  0  0  0
   60.2798  -10.6638   -3.6075 C   0  0  0  0  0  0  0  0  0  0  0  0
 20 21  1  0  0  0
 21 18  1  0  0  0
 18 19  2  0  0  0
 18  1  1  0  0  0
  1  2  1  0  0  0
  2  3  1  0  0  0
  2  4  2  0  0  0
  4  5  1  0  0  0
  5  6  1  0  0  0
  5  7  2  0  0  0
  7 22  1  0  0  0
 22 23  2  0  0  0
 22 24  1  0  0  0
 24 25  1  0  0  0
 25 26  1  0  0  0
 26 27  1  0  0  0
 27 28  1  0  0  0
 27 29  1  0  0  0
 29 30  1  0  0  0
 30 31  2  0  0  0
 31 32  1  0  0  0
 32 33  2  0  0  0
 33 34  1  0  0  0
 34 35  2  0  0  0
  7  8  1  0  0  0
  8  9  1  0  0  0
  9 10  2  0  0  0
 10 11  1  0  0  0
 11 12  2  0  0  0
 12 13  1  0  0  0
 13 15  1  0  0  0
 15 16  2  0  0  0
 15 17  1  0  0  0
 13 14  2  0  0  0
  8  1  1  0  0  0
 14  9  1  0  0  0
 35 30  1  0  0  0
M  CHG 1  15   1
M  CHG 1  17  -1
M  END
> <minimizedAffinity>
-7.21921

> <CNNscore>
0.4717493653

> <CNNaffinity>
6.5578269958

> <CNN_VS>
3.0936508179

> <CNNaffinity_variance>
0.0326425061

$$$$
[H]c1c([H])c([H])c(C([H])([H])N(C([H])([H])[H])C([H])([H])C([H])([H])OC(=O)C2=C(C([H])([H])[H])N=C(C([H])([H])[H])C([H])(C(=O)OC([H])([H])[H])C2([H])c2c([H])c([H])c([H])c([N+](=O)[O-])c2[H])c([H])c1[H]


 35 37  0  0  0  0  0  0  0  0999 V2000
   52.3842   -4.7772   -7.4061 C   0  0  0  0  0  0  0  0  0  0  0  0
   51.8249   -5.9850   -6.7903 C   0  0  0  0  0  0  0  0  0  0  0  0
   50.3916   -6.3285   -7.1627 C   0  0  0  0  0  0  0  0  0  0  0  0
   52.4203   -6.7528   -5.9923 N   0  0  0  0  0  0  0  0  0  0  0  0
   53.7563   -6.5048   -5.6002 C   0  0  0  0  0  0  0  0  0  0  0  0
   54.3766   -7.4682   -4.6229 C   0  0  0  0  0  0  0  0  0  0  0  0
   54.3911   -5.4561   -6.0801 C   0  0  0  0  0  0  0  0  0  0  0  0
   53.7756   -4.5124   -7.0663 C   0  0  0  0  0  0  0  0  0  0  0  0
   54.6720   -4.4605   -8.2607 C   0  0  0  0  0  0  0  0  0  0  0  0
   54.2971   -3.9040   -9.4523 C   0  0  0  0  0  0  0  0  0  0  0  0
   55.1573   -3.8535  -10.5305 C   0  0  0  0  0  0  0  0  0  0  0  0
   56.4384   -4.3808  -10.4062 C   0  0  0  0  0  0  0  0  0  0  0  0
   56.8268   -4.9466   -9.2026 C   0  0  0  0  0  0  0  0  0  0  0  0
   55.9362   -4.9783   -8.1456 C   0  0  0  0  0  0  0  0  0  0  0  0
   58.1384   -5.4776   -9.0993 N   0  0  0  0  0  0  0  0  0  0  0  0
   58.5935   -6.1172  -10.0604 O   0  0  0  0  0  0  0  0  0  0  0  0
   58.9210   -5.3166   -7.9911 O   0  0  0  0  0  0  0  0  0  0  0  0
   51.4621   -3.6495   -6.9970 C   0  0  0  0  0  0  0  0  0  0  0  0
   50.8279   -3.6684   -5.9425 O   0  0  0  0  0  0  0  0  0  0  0  0
   50.2911   -1.6329   -7.6967 C   0  0  0  0  0  0  0  0  0  0  0  0
   51.3474   -2.5751   -7.8548 O   0  0  0  0  0  0  0  0  0  0  0  0
   55.7641   -5.1958   -5.6775 C   0  0  0  0  0  0  0  0  0  0  0  0
   56.0711   -3.9739   -5.4038 O   0  0  0  0  0  0  0  0  0  0  0  0
   56.8048   -6.0848   -5.5425 O   0  0  0  0  0  0  0  0  0  0  0  0
   57.2830   -6.3618   -4.2148 C   0  0  0  0  0  0  0  0  0  0  0  0
   58.2925   -7.4375   -4.1779 C   0  0  0  0  0  0  0  0  0  0  0  0
   58.9356   -7.7457   -2.9658 N   0  0  0  0  0  0  0  0  0  0  0  0
   59.3314   -6.7433   -2.0827 C   0  0  0  0  0  0  0  0  0  0  0  0
   59.9447   -8.7412   -3.2014 C   0  0  0  0  0  0  0  0  0  0  0  0
   61.1151   -8.2581   -3.9595 C   0  0  0  0  0  0  0  0  0  0  0  0
   61.1876   -8.2333   -5.3402 C   0  0  0  0  0  0  0  0  0  0  0  0
   62.3006   -7.7735   -6.0107 C   0  0  0  0  0  0  0  0  0  0  0  0
   63.3815   -7.3216   -5.2789 C   0  0  0  0  0  0  0  0  0  0  0  0
   63.3280   -7.3384   -3.9023 C   0  0  0  0  0  0  0  0  0  0  0  0
   62.2144   -7.7988   -3.2621 C   0  0  0  0  0  0  0  0  0  0  0  0
 20 21  1  0  0  0
 21 18  1  0  0  0
 18 19  2  0  0  0
 18  1  1  0  0  0
  1  2  1  0  0  0
  2  3  1  0  0  0
  2  4  2  0  0  0
  4  5  1  0  0  0
  5  6  1  0  0  0
  5  7  2  0  0  0
  7 22  1  0  0  0
 22 23  2  0  0  0
 22 24  1  0  0  0
 24 25  1  0  0  0
 25 26  1  0  0  0
 26 27  1  0  0  0
 27 28  1  0  0  0
 27 29  1  0  0  0
 29 30  1  0  0  0
 30 31  2  0  0  0
 31 32  1  0  0  0
 32 33  2  0  0  0
 33 34  1  0  0  0
 34 35  2  0  0  0
  7  8  1  0  0  0
  8  9  1  0  0  0
  9 10  2  0  0  0
 10 11  1  0  0  0
 11 12  2  0  0  0
 12 13  1  0  0  0
 13 15  1  0  0  0
 15 16  2  0  0  0
 15 17  1  0  0  0
 13 14  2  0  0  0
  8  1  1  0  0  0
 14  9  1  0  0  0
 35 30  1  0  0  0
M  CHG 1  15   1
M  CHG 1  17  -1
M  END
> <minimizedAffinity>
-7.21164

> <CNNscore>
0.4237319231

> <CNNaffinity>
6.5150022507

> <CNN_VS>
2.7606143951

> <CNNaffinity_variance>
0.0737665147

$$$$
[H]c1c([H])c([H])c(C([H])([H])N(C([H])([H])[H])C([H])([H])C([H])([H])OC(=O)C2=C(C([H])([H])[H])N=C(C([H])([H])[H])C([H])(C(=O)OC([H])([H])[H])C2([H])c2c([H])c([H])c([H])c([N+](=O)[O-])c2[H])c([H])c1[H]


 35 37  0  0  0  0  0  0  0  0999 V2000
   53.3366   -4.9324   -7.7605 C   0  0  0  0  0  0  0  0  0  0  0  0
   52.4977   -5.9732   -7.1574 C   0  0  0  0  0  0  0  0  0  0  0  0
   51.2394   -6.3507   -7.9223 C   0  0  0  0  0  0  0  0  0  0  0  0
   52.7261   -6.5742   -6.0769 N   0  0  0  0  0  0  0  0  0  0  0  0
   53.8776   -6.2836   -5.3090 C   0  0  0  0  0  0  0  0  0  0  0  0
   54.0527   -7.0398   -4.0184 C   0  0  0  0  0  0  0  0  0  0  0  0
   54.7284   -5.3724   -5.7317 C   0  0  0  0  0  0  0  0  0  0  0  0
   54.5589   -4.6375   -7.0252 C   0  0  0  0  0  0  0  0  0  0  0  0
   55.7970   -4.8551   -7.8331 C   0  0  0  0  0  0  0  0  0  0  0  0
   56.9534   -5.3604   -7.3063 C   0  0  0  0  0  0  0  0  0  0  0  0
   58.0736   -5.5688   -8.0852 C   0  0  0  0  0  0  0  0  0  0  0  0
   58.0295   -5.2583   -9.4402 C   0  0  0  0  0  0  0  0  0  0  0  0
   56.8621   -4.7458   -9.9826 C   0  0  0  0  0  0  0  0  0  0  0  0
   55.7609   -4.5513   -9.1695 C   0  0  0  0  0  0  0  0  0  0  0  0
   56.8406   -4.4370  -11.3672 N   0  0  0  0  0  0  0  0  0  0  0  0
   55.8824   -3.7858  -11.8117 O   0  0  0  0  0  0  0  0  0  0  0  0
   57.8256   -4.8241  -12.2311 O   0  0  0  0  0  0  0  0  0  0  0  0
   52.4400   -3.7223   -7.9050 C   0  0  0  0  0  0  0  0  0  0  0  0
   52.4556   -3.0082   -8.9072 O   0  0  0  0  0  0  0  0  0  0  0  0
   50.3610   -2.7441   -7.0996 C   0  0  0  0  0  0  0  0  0  0  0  0
   51.5849   -3.4327   -6.8618 O   0  0  0  0  0  0  0  0  0  0  0  0
   55.9124   -5.0685   -4.9439 C   0  0  0  0  0  0  0  0  0  0  0  0
   56.0600   -3.8472   -4.5581 O   0  0  0  0  0  0  0  0  0  0  0  0
   56.9190   -5.9149   -4.5411 O   0  0  0  0  0  0  0  0  0  0  0  0
   57.2704   -5.9239   -3.1466 C   0  0  0  0  0  0  0  0  0  0  0  0
   58.2810   -6.9462   -2.8130 C   0  0  0  0  0  0  0  0  0  0  0  0
   57.8724   -8.1721   -2.2581 N   0  0  0  0  0  0  0  0  0  0  0  0
   56.5826   -8.3459   -1.7607 C   0  0  0  0  0  0  0  0  0  0  0  0
   58.9010   -8.6664   -1.3849 C   0  0  0  0  0  0  0  0  0  0  0  0
   59.3727  -10.0276   -1.7047 C   0  0  0  0  0  0  0  0  0  0  0  0
   59.9555  -10.3832   -2.9074 C   0  0  0  0  0  0  0  0  0  0  0  0
   60.3832  -11.6674   -3.1668 C   0  0  0  0  0  0  0  0  0  0  0  0
   60.2247  -12.6335   -2.1923 C   0  0  0  0  0  0  0  0  0  0  0  0
   59.6462  -12.2985   -0.9876 C   0  0  0  0  0  0  0  0  0  0  0  0
   59.2308  -11.0197   -0.7553 C   0  0  0  0  0  0  0  0  0  0  0  0
 20 21  1  0  0  0
 21 18  1  0  0  0
 18 19  2  0  0  0
 18  1  1  0  0  0
  1  2  1  0  0  0
  2  3  1  0  0  0
  2  4  2  0  0  0
  4  5  1  0  0  0
  5  6  1  0  0  0
  5  7  2  0  0  0
  7 22  1  0  0  0
 22 23  2  0  0  0
 22 24  1  0  0  0
 24 25  1  0  0  0
 25 26  1  0  0  0
 26 27  1  0  0  0
 27 28  1  0  0  0
 27 29  1  0  0  0
 29 30  1  0  0  0
 30 31  2  0  0  0
 31 32  1  0  0  0
 32 33  2  0  0  0
 33 34  1  0  0  0
 34 35  2  0  0  0
  7  8  1  0  0  0
  8  9  1  0  0  0
  9 10  2  0  0  0
 10 11  1  0  0  0
 11 12  2  0  0  0
 12 13  1  0  0  0
 13 15  1  0  0  0
 15 16  2  0  0  0
 15 17  1  0  0  0
 13 14  2  0  0  0
  8  1  1  0  0  0
 14  9  1  0  0  0
 35 30  1  0  0  0
M  CHG 1  15   1
M  CHG 1  17  -1
M  END
> <minimizedAffinity>
-7.08205

> <CNNscore>
0.3671720028

> <CNNaffinity>
6.4578485489

> <CNN_VS>
2.3711411953

> <CNNaffinity_variance>
0.0959500819

$$$$
[H]c1c([H])c([H])c(C([H])([H])N(C([H])([H])[H])C([H])([H])C([H])([H])OC(=O)C2=C(C([H])([H])[H])N=C(C([H])([H])[H])C([H])(C(=O)OC([H])([H])[H])C2([H])c2c([H])c([H])c([H])c([N+](=O)[O-])c2[H])c([H])c1[H]


 35 37  0  0  0  0  0  0  0  0999 V2000
   58.2333   -4.6407  -11.6508 C   0  0  0  0  0  0  0  0  0  0  0  0
   56.8165   -4.6843  -12.0270 C   0  0  0  0  0  0  0  0  0  0  0  0
   56.5147   -4.6632  -13.5167 C   0  0  0  0  0  0  0  0  0  0  0  0
   55.8417   -4.7385  -11.2349 N   0  0  0  0  0  0  0  0  0  0  0  0
   56.0391   -4.7662   -9.8347 C   0  0  0  0  0  0  0  0  0  0  0  0
   54.8089   -4.8084   -8.9671 C   0  0  0  0  0  0  0  0  0  0  0  0
   57.2627   -4.7392   -9.3497 C   0  0  0  0  0  0  0  0  0  0  0  0
   58.4825   -4.7166  -10.2177 C   0  0  0  0  0  0  0  0  0  0  0  0
   59.3330   -5.8828   -9.8307 C   0  0  0  0  0  0  0  0  0  0  0  0
   59.0866   -7.1598  -10.2534 C   0  0  0  0  0  0  0  0  0  0  0  0
   59.9044   -8.2120   -9.8942 C   0  0  0  0  0  0  0  0  0  0  0  0
   61.0078   -7.9718   -9.0822 C   0  0  0  0  0  0  0  0  0  0  0  0
   61.2651   -6.6812   -8.6492 C   0  0  0  0  0  0  0  0  0  0  0  0
   60.4223   -5.6536   -9.0304 C   0  0  0  0  0  0  0  0  0  0  0  0
   62.3966   -6.4603   -7.8221 N   0  0  0  0  0  0  0  0  0  0  0  0
   63.1979   -5.5691   -8.1439 O   0  0  0  0  0  0  0  0  0  0  0  0
   62.6429   -7.1838   -6.6897 O   0  0  0  0  0  0  0  0  0  0  0  0
   58.7776   -3.3709  -12.2680 C   0  0  0  0  0  0  0  0  0  0  0  0
   58.3061   -2.2626  -12.0157 O   0  0  0  0  0  0  0  0  0  0  0  0
   59.6850   -3.1605  -14.5174 C   0  0  0  0  0  0  0  0  0  0  0  0
   59.8399   -3.4892  -13.1403 O   0  0  0  0  0  0  0  0  0  0  0  0
   57.4702   -4.7648   -7.9106 C   0  0  0  0  0  0  0  0  0  0  0  0
   57.6717   -3.6319   -7.3290 O   0  0  0  0  0  0  0  0  0  0  0  0
   57.4817   -5.8468   -7.0616 O   0  0  0  0  0  0  0  0  0  0  0  0
   56.2402   -6.2289   -6.4444 C   0  0  0  0  0  0  0  0  0  0  0  0
   55.7771   -5.2600   -5.4322 C   0  0  0  0  0  0  0  0  0  0  0  0
   54.7119   -5.6013   -4.5798 N   0  0  0  0  0  0  0  0  0  0  0  0
   54.9410   -6.1792   -3.3329 C   0  0  0  0  0  0  0  0  0  0  0  0
   53.6833   -6.2554   -5.3409 C   0  0  0  0  0  0  0  0  0  0  0  0
   52.4553   -5.4573   -5.5217 C   0  0  0  0  0  0  0  0  0  0  0  0
   52.2310   -4.6124   -6.5932 C   0  0  0  0  0  0  0  0  0  0  0  0
   51.0687   -3.8835   -6.7251 C   0  0  0  0  0  0  0  0  0  0  0  0
   50.0935   -4.0005   -5.7539 C   0  0  0  0  0  0  0  0  0  0  0  0
   50.2986   -4.8373   -4.6788 C   0  0  0  0  0  0  0  0  0  0  0  0
   51.4583   -5.5482   -4.5711 C   0  0  0  0  0  0  0  0  0  0  0  0
 20 21  1  0  0  0
 21 18  1  0  0  0
 18 19  2  0  0  0
 18  1  1  0  0  0
  1  2  1  0  0  0
  2  3  1  0  0  0
  2  4  2  0  0  0
  4  5  1  0  0  0
  5  6  1  0  0  0
  5  7  2  0  0  0
  7 22  1  0  0  0
 22 23  2  0  0  0
 22 24  1  0  0  0
 24 25  1  0  0  0
 25 26  1  0  0  0
 26 27  1  0  0  0
 27 28  1  0  0  0
 27 29  1  0  0  0
 29 30  1  0  0  0
 30 31  2  0  0  0
 31 32  1  0  0  0
 32 33  2  0  0  0
 33 34  1  0  0  0
 34 35  2  0  0  0
  7  8  1  0  0  0
  8  9  1  0  0  0
  9 10  2  0  0  0
 10 11  1  0  0  0
 11 12  2  0  0  0
 12 13  1  0  0  0
 13 15  1  0  0  0
 15 16  2  0  0  0
 15 17  1  0  0  0
 13 14  2  0  0  0
  8  1  1  0  0  0
 14  9  1  0  0  0
 35 30  1  0  0  0
M  CHG 1  15   1
M  CHG 1  17  -1
M  END
> <minimizedAffinity>
-3.82368

> <CNNscore>
0.3576609790

> <CNNaffinity>
6.2072191238

> <CNN_VS>
2.2200801373

> <CNNaffinity_variance>
0.1920244247

$$$$
[H]c1c([H])c([H])c(C([H])([H])N(C([H])([H])[H])C([H])([H])C([H])([H])OC(=O)C2=C(C([H])([H])[H])N=C(C([H])([H])[H])C([H])(C(=O)OC([H])([H])[H])C2([H])c2c([H])c([H])c([H])c([N+](=O)[O-])c2[H])c([H])c1[H]


 35 37  0  0  0  0  0  0  0  0999 V2000
   53.3122   -5.0266   -7.6361 C   0  0  0  0  0  0  0  0  0  0  0  0
   52.4862   -6.0630   -7.0081 C   0  0  0  0  0  0  0  0  0  0  0  0
   51.2383   -6.4817   -7.7685 C   0  0  0  0  0  0  0  0  0  0  0  0
   52.7180   -6.6298   -5.9100 N   0  0  0  0  0  0  0  0  0  0  0  0
   53.8605   -6.2997   -5.1447 C   0  0  0  0  0  0  0  0  0  0  0  0
   54.0402   -7.0164   -3.8324 C   0  0  0  0  0  0  0  0  0  0  0  0
   54.6994   -5.3874   -5.5886 C   0  0  0  0  0  0  0  0  0  0  0  0
   54.5256   -4.6919   -6.9032 C   0  0  0  0  0  0  0  0  0  0  0  0
   55.7715   -4.9126   -7.6982 C   0  0  0  0  0  0  0  0  0  0  0  0
   56.9089   -5.4565   -7.1686 C   0  0  0  0  0  0  0  0  0  0  0  0
   58.0366   -5.6663   -7.9362 C   0  0  0  0  0  0  0  0  0  0  0  0
   58.0199   -5.3173   -9.2825 C   0  0  0  0  0  0  0  0  0  0  0  0
   56.8718   -4.7656   -9.8276 C   0  0  0  0  0  0  0  0  0  0  0  0
   55.7623   -4.5709   -9.0259 C   0  0  0  0  0  0  0  0  0  0  0  0
   56.8782   -4.4179  -11.2031 N   0  0  0  0  0  0  0  0  0  0  0  0
   55.9086   -3.7908  -11.6577 O   0  0  0  0  0  0  0  0  0  0  0  0
   57.9018   -4.7423  -12.0477 O   0  0  0  0  0  0  0  0  0  0  0  0
   52.3976   -3.8352   -7.8193 C   0  0  0  0  0  0  0  0  0  0  0  0
   52.3943   -3.1609   -8.8487 O   0  0  0  0  0  0  0  0  0  0  0  0
   50.3049   -2.8696   -7.0346 C   0  0  0  0  0  0  0  0  0  0  0  0
   51.5480   -3.5165   -6.7801 O   0  0  0  0  0  0  0  0  0  0  0  0
   55.8741   -5.0429   -4.8036 C   0  0  0  0  0  0  0  0  0  0  0  0
   56.3699   -3.8658   -4.9796 O   0  0  0  0  0  0  0  0  0  0  0  0
   56.5465   -5.8079   -3.8793 O   0  0  0  0  0  0  0  0  0  0  0  0
   57.4829   -6.7833   -4.3692 C   0  0  0  0  0  0  0  0  0  0  0  0
   58.5148   -7.1415   -3.3769 C   0  0  0  0  0  0  0  0  0  0  0  0
   59.7470   -7.6609   -3.8124 N   0  0  0  0  0  0  0  0  0  0  0  0
   59.8338   -8.9245   -4.3930 C   0  0  0  0  0  0  0  0  0  0  0  0
   60.7487   -7.4133   -2.8123 C   0  0  0  0  0  0  0  0  0  0  0  0
   62.1321   -7.6746   -3.2546 C   0  0  0  0  0  0  0  0  0  0  0  0
   62.7060   -7.1094   -4.3787 C   0  0  0  0  0  0  0  0  0  0  0  0
   64.0032   -7.3798   -4.7578 C   0  0  0  0  0  0  0  0  0  0  0  0
   64.7569   -8.2452   -3.9889 C   0  0  0  0  0  0  0  0  0  0  0  0
   64.2025   -8.8182   -2.8654 C   0  0  0  0  0  0  0  0  0  0  0  0
   62.9157   -8.5344   -2.5113 C   0  0  0  0  0  0  0  0  0  0  0  0
 20 21  1  0  0  0
 21 18  1  0  0  0
 18 19  2  0  0  0
 18  1  1  0  0  0
  1  2  1  0  0  0
  2  3  1  0  0  0
  2  4  2  0  0  0
  4  5  1  0  0  0
  5  6  1  0  0  0
  5  7  2  0  0  0
  7 22  1  0  0  0
 22 23  2  0  0  0
 22 24  1  0  0  0
 24 25  1  0  0  0
 25 26  1  0  0  0
 26 27  1  0  0  0
 27 28  1  0  0  0
 27 29  1  0  0  0
 29 30  1  0  0  0
 30 31  2  0  0  0
 31 32  1  0  0  0
 32 33  2  0  0  0
 33 34  1  0  0  0
 34 35  2  0  0  0
  7  8  1  0  0  0
  8  9  1  0  0  0
  9 10  2  0  0  0
 10 11  1  0  0  0
 11 12  2  0  0  0
 12 13  1  0  0  0
 13 15  1  0  0  0
 15 16  2  0  0  0
 15 17  1  0  0  0
 13 14  2  0  0  0
  8  1  1  0  0  0
 14  9  1  0  0  0
 35 30  1  0  0  0
M  CHG 1  15   1
M  CHG 1  17  -1
M  END
> <minimizedAffinity>
-6.56147

> <CNNscore>
0.3445509970

> <CNNaffinity>
6.5016007423

> <CNN_VS>
2.2401330471

> <CNNaffinity_variance>
0.1327340901

$$$$
[H]c1c([H])c([H])c(C([H])([H])N(C([H])([H])[H])C([H])([H])C([H])([H])OC(=O)C2=C(C([H])([H])[H])N=C(C([H])([H])[H])C([H])(C(=O)OC([H])([H])[H])C2([H])c2c([H])c([H])c([H])c([N+](=O)[O-])c2[H])c([H])c1[H]


 35 37  0  0  0  0  0  0  0  0999 V2000
   52.2506   -4.7080   -7.4045 C   0  0  0  0  0  0  0  0  0  0  0  0
   51.6750   -5.9125   -6.7973 C   0  0  0  0  0  0  0  0  0  0  0  0
   50.2452   -6.2469   -7.1903 C   0  0  0  0  0  0  0  0  0  0  0  0
   52.2542   -6.6841   -5.9912 N   0  0  0  0  0  0  0  0  0  0  0  0
   53.5859   -6.4446   -5.5798 C   0  0  0  0  0  0  0  0  0  0  0  0
   54.1862   -7.4121   -4.5941 C   0  0  0  0  0  0  0  0  0  0  0  0
   54.2341   -5.3997   -6.0501 C   0  0  0  0  0  0  0  0  0  0  0  0
   53.6386   -4.4519   -7.0447 C   0  0  0  0  0  0  0  0  0  0  0  0
   54.5524   -4.4052   -8.2261 C   0  0  0  0  0  0  0  0  0  0  0  0
   54.1878   -3.8724   -9.4317 C   0  0  0  0  0  0  0  0  0  0  0  0
   55.0636   -3.8259  -10.4974 C   0  0  0  0  0  0  0  0  0  0  0  0
   56.3500   -4.3325  -10.3457 C   0  0  0  0  0  0  0  0  0  0  0  0
   56.7281   -4.8742   -9.1278 C   0  0  0  0  0  0  0  0  0  0  0  0
   55.8220   -4.9027   -8.0839 C   0  0  0  0  0  0  0  0  0  0  0  0
   58.0454   -5.3843   -8.9965 N   0  0  0  0  0  0  0  0  0  0  0  0
   58.6880   -5.1028   -7.9728 O   0  0  0  0  0  0  0  0  0  0  0  0
   58.6370   -6.1698   -9.9449 O   0  0  0  0  0  0  0  0  0  0  0  0
   51.3298   -3.5747   -7.0082 C   0  0  0  0  0  0  0  0  0  0  0  0
   51.1936   -2.5656   -7.6994 O   0  0  0  0  0  0  0  0  0  0  0  0
   49.3843   -3.0379   -5.6464 C   0  0  0  0  0  0  0  0  0  0  0  0
   50.6306   -3.7035   -5.8259 O   0  0  0  0  0  0  0  0  0  0  0  0
   55.6027   -5.1481   -5.6278 C   0  0  0  0  0  0  0  0  0  0  0  0
   56.4811   -6.0423   -5.9295 O   0  0  0  0  0  0  0  0  0  0  0  0
   56.1065   -4.0696   -4.9389 O   0  0  0  0  0  0  0  0  0  0  0  0
   56.5153   -4.2755   -3.5755 C   0  0  0  0  0  0  0  0  0  0  0  0
   55.4114   -4.7211   -2.7034 C   0  0  0  0  0  0  0  0  0  0  0  0
   55.7030   -5.3576   -1.4838 N   0  0  0  0  0  0  0  0  0  0  0  0
   56.3575   -6.5871   -1.4488 C   0  0  0  0  0  0  0  0  0  0  0  0
   54.5539   -5.2889   -0.6237 C   0  0  0  0  0  0  0  0  0  0  0  0
   53.3082   -5.8025   -1.2253 C   0  0  0  0  0  0  0  0  0  0  0  0
   52.9007   -7.1222   -1.1556 C   0  0  0  0  0  0  0  0  0  0  0  0
   51.7284   -7.5619   -1.7318 C   0  0  0  0  0  0  0  0  0  0  0  0
   50.9322   -6.6537   -2.4020 C   0  0  0  0  0  0  0  0  0  0  0  0
   51.3214   -5.3345   -2.4821 C   0  0  0  0  0  0  0  0  0  0  0  0
   52.4869   -4.9241   -1.9033 C   0  0  0  0  0  0  0  0  0  0  0  0
 20 21  1  0  0  0
 21 18  1  0  0  0
 18 19  2  0  0  0
 18  1  1  0  0  0
  1  2  1  0  0  0
  2  3  1  0  0  0
  2  4  2  0  0  0
  4  5  1  0  0  0
  5  6  1  0  0  0
  5  7  2  0  0  0
  7 22  1  0  0  0
 22 23  2  0  0  0
 22 24  1  0  0  0
 24 25  1  0  0  0
 25 26  1  0  0  0
 26 27  1  0  0  0
 27 28  1  0  0  0
 27 29  1  0  0  0
 29 30  1  0  0  0
 30 31  2  0  0  0
 31 32  1  0  0  0
 32 33  2  0  0  0
 33 34  1  0  0  0
 34 35  2  0  0  0
  7  8  1  0  0  0
  8  9  1  0  0  0
  9 10  2  0  0  0
 10 11  1  0  0  0
 11 12  2  0  0  0
 12 13  1  0  0  0
 13 15  1  0  0  0
 15 16  2  0  0  0
 15 17  1  0  0  0
 13 14  2  0  0  0
  8  1  1  0  0  0
 14  9  1  0  0  0
 35 30  1  0  0  0
M  CHG 1  15   1
M  CHG 1  17  -1
M  END
> <minimizedAffinity>
-8.33758

> <CNNscore>
0.3333866894

> <CNNaffinity>
6.8242988586

> <CNN_VS>
2.2751305103

> <CNNaffinity_variance>
0.1082086787

$$$$
[H]c1c([H])c([H])c(C([H])([H])N(C([H])([H])[H])C([H])([H])C([H])([H])OC(=O)C2=C(C([H])([H])[H])N=C(C([H])([H])[H])C([H])(C(=O)OC([H])([H])[H])C2([H])c2c([H])c([H])c([H])c([N+](=O)[O-])c2[H])c([H])c1[H]


 35 37  0  0  0  0  0  0  0  0999 V2000
   51.5753   -4.8362   -5.7971 C   0  0  0  0  0  0  0  0  0  0  0  0
   51.3329   -3.6821   -6.6690 C   0  0  0  0  0  0  0  0  0  0  0  0
   50.0136   -2.9536   -6.4702 C   0  0  0  0  0  0  0  0  0  0  0  0
   52.1121   -3.2468   -7.5546 N   0  0  0  0  0  0  0  0  0  0  0  0
   53.3600   -3.8662   -7.7977 C   0  0  0  0  0  0  0  0  0  0  0  0
   54.2140   -3.2862   -8.8943 C   0  0  0  0  0  0  0  0  0  0  0  0
   53.7167   -4.9132   -7.0838 C   0  0  0  0  0  0  0  0  0  0  0  0
   52.8718   -5.4736   -5.9819 C   0  0  0  0  0  0  0  0  0  0  0  0
   53.7020   -5.4868   -4.7394 C   0  0  0  0  0  0  0  0  0  0  0  0
   54.8870   -4.8138   -4.6258 C   0  0  0  0  0  0  0  0  0  0  0  0
   55.6195   -4.8297   -3.4561 C   0  0  0  0  0  0  0  0  0  0  0  0
   55.1441   -5.5468   -2.3633 C   0  0  0  0  0  0  0  0  0  0  0  0
   53.9444   -6.2316   -2.4694 C   0  0  0  0  0  0  0  0  0  0  0  0
   53.2396   -6.1916   -3.6582 C   0  0  0  0  0  0  0  0  0  0  0  0
   53.4793   -6.9558   -1.3415 N   0  0  0  0  0  0  0  0  0  0  0  0
   54.1671   -7.8994   -0.9214 O   0  0  0  0  0  0  0  0  0  0  0  0
   52.3102   -6.6614   -0.6988 O   0  0  0  0  0  0  0  0  0  0  0  0
   50.4221   -5.7830   -6.0481 C   0  0  0  0  0  0  0  0  0  0  0  0
   49.6891   -6.1810   -5.1432 O   0  0  0  0  0  0  0  0  0  0  0  0
   50.5920   -7.5058   -7.7600 C   0  0  0  0  0  0  0  0  0  0  0  0
   50.2076   -6.1983   -7.3461 O   0  0  0  0  0  0  0  0  0  0  0  0
   54.9979   -5.5548   -7.3322 C   0  0  0  0  0  0  0  0  0  0  0  0
   54.9893   -6.8338   -7.4939 O   0  0  0  0  0  0  0  0  0  0  0  0
   56.2446   -4.9812   -7.4227 O   0  0  0  0  0  0  0  0  0  0  0  0
   56.9484   -5.0985   -8.6714 C   0  0  0  0  0  0  0  0  0  0  0  0
   58.3704   -5.4542   -8.5009 C   0  0  0  0  0  0  0  0  0  0  0  0
   59.2110   -5.5159   -9.6266 N   0  0  0  0  0  0  0  0  0  0  0  0
   58.7607   -5.1279  -10.8868 C   0  0  0  0  0  0  0  0  0  0  0  0
   59.9192   -6.7662   -9.6246 C   0  0  0  0  0  0  0  0  0  0  0  0
   61.3884   -6.6368   -9.5756 C   0  0  0  0  0  0  0  0  0  0  0  0
   62.2130   -6.7434  -10.6806 C   0  0  0  0  0  0  0  0  0  0  0  0
   63.5824   -6.6159  -10.5921 C   0  0  0  0  0  0  0  0  0  0  0  0
   64.1519   -6.3731   -9.3572 C   0  0  0  0  0  0  0  0  0  0  0  0
   63.3468   -6.2637   -8.2446 C   0  0  0  0  0  0  0  0  0  0  0  0
   61.9933   -6.3941   -8.3586 C   0  0  0  0  0  0  0  0  0  0  0  0
 20 21  1  0  0  0
 21 18  1  0  0  0
 18 19  2  0  0  0
 18  1  1  0  0  0
  1  2  1  0  0  0
  2  3  1  0  0  0
  2  4  2  0  0  0
  4  5  1  0  0  0
  5  6  1  0  0  0
  5  7  2  0  0  0
  7 22  1  0  0  0
 22 23  2  0  0  0
 22 24  1  0  0  0
 24 25  1  0  0  0
 25 26  1  0  0  0
 26 27  1  0  0  0
 27 28  1  0  0  0
 27 29  1  0  0  0
 29 30  1  0  0  0
 30 31  2  0  0  0
 31 32  1  0  0  0
 32 33  2  0  0  0
 33 34  1  0  0  0
 34 35  2  0  0  0
  7  8  1  0  0  0
  8  9  1  0  0  0
  9 10  2  0  0  0
 10 11  1  0  0  0
 11 12  2  0  0  0
 12 13  1  0  0  0
 13 15  1  0  0  0
 15 16  2  0  0  0
 15 17  1  0  0  0
 13 14  2  0  0  0
  8  1  1  0  0  0
 14  9  1  0  0  0
 35 30  1  0  0  0
M  CHG 1  15   1
M  CHG 1  17  -1
M  END
> <minimizedAffinity>
-6.09416

> <CNNscore>
0.2578456402

> <CNNaffinity>
6.4936876297

> <CNN_VS>
1.6743690968

> <CNNaffinity_variance>
0.1978381425

$$$$
[H]c1c([H])c([H])c(C([H])([H])N(C([H])([H])[H])C([H])([H])C([H])([H])OC(=O)C2=C(C([H])([H])[H])N=C(C([H])([H])[H])C([H])(C(=O)OC([H])([H])[H])C2([H])c2c([H])c([H])c([H])c([N+](=O)[O-])c2[H])c([H])c1[H]


 35 37  0  0  0  0  0  0  0  0999 V2000
   53.1898   -5.1612   -6.6449 C   0  0  0  0  0  0  0  0  0  0  0  0
   52.7803   -4.0008   -7.4427 C   0  0  0  0  0  0  0  0  0  0  0  0
   51.3388   -3.5467   -7.2795 C   0  0  0  0  0  0  0  0  0  0  0  0
   53.5086   -3.3557   -8.2390 N   0  0  0  0  0  0  0  0  0  0  0  0
   54.8619   -3.7122   -8.4430 C   0  0  0  0  0  0  0  0  0  0  0  0
   55.6473   -2.8935   -9.4334 C   0  0  0  0  0  0  0  0  0  0  0  0
   55.3716   -4.7333   -7.7867 C   0  0  0  0  0  0  0  0  0  0  0  0
   54.5911   -5.5316   -6.7889 C   0  0  0  0  0  0  0  0  0  0  0  0
   55.3428   -5.4986   -5.4979 C   0  0  0  0  0  0  0  0  0  0  0  0
   55.4333   -4.3812   -4.7146 C   0  0  0  0  0  0  0  0  0  0  0  0
   56.1185   -4.3902   -3.5166 C   0  0  0  0  0  0  0  0  0  0  0  0
   56.7338   -5.5629   -3.0915 C   0  0  0  0  0  0  0  0  0  0  0  0
   56.6474   -6.6998   -3.8786 C   0  0  0  0  0  0  0  0  0  0  0  0
   55.9519   -6.6509   -5.0725 C   0  0  0  0  0  0  0  0  0  0  0  0
   57.2825   -7.8843   -3.4244 N   0  0  0  0  0  0  0  0  0  0  0  0
   56.6016   -8.7210   -2.8109 O   0  0  0  0  0  0  0  0  0  0  0  0
   58.6076   -8.1443   -3.6315 O   0  0  0  0  0  0  0  0  0  0  0  0
   52.2504   -6.2786   -7.0427 C   0  0  0  0  0  0  0  0  0  0  0  0
   52.3464   -6.8663   -8.1197 O   0  0  0  0  0  0  0  0  0  0  0  0
   51.3058   -6.1677   -4.8015 C   0  0  0  0  0  0  0  0  0  0  0  0
   51.2611   -6.6303   -6.1479 O   0  0  0  0  0  0  0  0  0  0  0  0
   56.7620   -5.1050   -7.9954 C   0  0  0  0  0  0  0  0  0  0  0  0
   57.6397   -4.5279   -7.2478 O   0  0  0  0  0  0  0  0  0  0  0  0
   57.2871   -6.0040   -8.8941 O   0  0  0  0  0  0  0  0  0  0  0  0
   58.4154   -5.5849   -9.6811 C   0  0  0  0  0  0  0  0  0  0  0  0
   59.7026   -6.0740   -9.1503 C   0  0  0  0  0  0  0  0  0  0  0  0
   60.4823   -6.9549   -9.9209 N   0  0  0  0  0  0  0  0  0  0  0  0
   60.7169   -8.2640   -9.5055 C   0  0  0  0  0  0  0  0  0  0  0  0
   61.6615   -6.2724  -10.3776 C   0  0  0  0  0  0  0  0  0  0  0  0
   62.8836   -6.5834   -9.6112 C   0  0  0  0  0  0  0  0  0  0  0  0
   63.8954   -7.4083  -10.0673 C   0  0  0  0  0  0  0  0  0  0  0  0
   65.0223   -7.6735   -9.3194 C   0  0  0  0  0  0  0  0  0  0  0  0
   65.1462   -7.0958   -8.0709 C   0  0  0  0  0  0  0  0  0  0  0  0
   64.1485   -6.2710   -7.5991 C   0  0  0  0  0  0  0  0  0  0  0  0
   63.0424   -6.0242   -8.3590 C   0  0  0  0  0  0  0  0  0  0  0  0
 20 21  1  0  0  0
 21 18  1  0  0  0
 18 19  2  0  0  0
 18  1  1  0  0  0
  1  2  1  0  0  0
  2  3  1  0  0  0
  2  4  2  0  0  0
  4  5  1  0  0  0
  5  6  1  0  0  0
  5  7  2  0  0  0
  7 22  1  0  0  0
 22 23  2  0  0  0
 22 24  1  0  0  0
 24 25  1  0  0  0
 25 26  1  0  0  0
 26 27  1  0  0  0
 27 28  1  0  0  0
 27 29  1  0  0  0
 29 30  1  0  0  0
 30 31  2  0  0  0
 31 32  1  0  0  0
 32 33  2  0  0  0
 33 34  1  0  0  0
 34 35  2  0  0  0
  7  8  1  0  0  0
  8  9  1  0  0  0
  9 10  2  0  0  0
 10 11  1  0  0  0
 11 12  2  0  0  0
 12 13  1  0  0  0
 13 15  1  0  0  0
 15 16  2  0  0  0
 15 17  1  0  0  0
 13 14  2  0  0  0
  8  1  1  0  0  0
 14  9  1  0  0  0
 35 30  1  0  0  0
M  CHG 1  15   1
M  CHG 1  17  -1
M  END
> <minimizedAffinity>
-5.62032

> <CNNscore>
0.2204970717

> <CNNaffinity>
6.1661643982

> <CNN_VS>
1.3596211672

> <CNNaffinity_variance>
0.1289013922

$$$$
[H]/C(=C(\[H])C([H])([H])C([H])([H])C([H])([H])C([H])([H])C([H])([H])C([H])([H])C([H])([H])C([H])([H])[H])C([H])([H])C([H])([H])C([H])([H])C([H])([H])C([H])([H])C([H])([H])C([H])([H])C(=O)c1nc2c([H])c([H])c([H])nc2o1


 28 29  0  0  0  0  0  0  0  0999 V2000
   51.2296   -2.9113   -7.9106 C   0  0  0  0  0  0  0  0  0  0  0  0
   50.2103   -2.2149   -7.1450 C   0  0  0  0  0  0  0  0  0  0  0  0
   49.4923   -2.7799   -6.0046 C   0  0  0  0  0  0  0  0  0  0  0  0
   49.8239   -4.1714   -5.5694 C   0  0  0  0  0  0  0  0  0  0  0  0
   49.5850   -4.3205   -4.0859 C   0  0  0  0  0  0  0  0  0  0  0  0
   48.6961   -3.6249   -3.5531 O   0  0  0  0  0  0  0  0  0  0  0  0
   50.3606   -5.2401   -3.3016 C   0  0  0  0  0  0  0  0  0  0  0  0
   51.6723   -5.5299   -3.4890 N   0  0  0  0  0  0  0  0  0  0  0  0
   52.0733   -6.4320   -2.5740 C   0  0  0  0  0  0  0  0  0  0  0  0
   53.2369   -7.0829   -2.2698 C   0  0  0  0  0  0  0  0  0  0  0  0
   53.2703   -7.9694   -1.2237 C   0  0  0  0  0  0  0  0  0  0  0  0
   52.1172   -8.1874   -0.4936 C   0  0  0  0  0  0  0  0  0  0  0  0
   50.9534   -7.5463   -0.7861 N   0  0  0  0  0  0  0  0  0  0  0  0
   50.9327   -6.6810   -1.8119 C   0  0  0  0  0  0  0  0  0  0  0  0
   49.9423   -5.9504   -2.2820 O   0  0  0  0  0  0  0  0  0  0  0  0
   52.2538   -2.2052   -8.6998 C   0  0  0  0  0  0  0  0  0  0  0  0
   53.2457   -3.0822   -9.3830 C   0  0  0  0  0  0  0  0  0  0  0  0
   54.6865   -2.8716   -8.9419 C   0  0  0  0  0  0  0  0  0  0  0  0
   56.3443   -4.5892   -8.4614 C   0  0  0  0  0  0  0  0  0  0  0  0
   55.4677   -4.0667   -9.2830 C   0  0  0  0  0  0  0  0  0  0  0  0
   56.6463   -4.0690   -7.1469 C   0  0  0  0  0  0  0  0  0  0  0  0
   55.7699   -4.6699   -6.0498 C   0  0  0  0  0  0  0  0  0  0  0  0
   56.1228   -6.0833   -5.7679 C   0  0  0  0  0  0  0  0  0  0  0  0
   55.0280   -7.0937   -6.1096 C   0  0  0  0  0  0  0  0  0  0  0  0
   53.6721   -6.5071   -6.0075 C   0  0  0  0  0  0  0  0  0  0  0  0
   53.0219   -5.9509   -7.2094 C   0  0  0  0  0  0  0  0  0  0  0  0
   50.6849   -6.7865   -7.1101 C   0  0  0  0  0  0  0  0  0  0  0  0
   51.9536   -6.7141   -7.8903 C   0  0  0  0  0  0  0  0  0  0  0  0
 27 28  1  0  0  0
 28 26  1  0  0  0
 26 25  1  0  0  0
 25 24  1  0  0  0
 24 23  1  0  0  0
 23 22  1  0  0  0
 22 21  1  0  0  0
 21 19  1  0  0  0
 19 20  2  0  0  0
 20 18  1  0  0  0
 18 17  1  0  0  0
 17 16  1  0  0  0
 16  1  1  0  0  0
  1  2  1  0  0  0
  2  3  1  0  0  0
  3  4  1  0  0  0
  4  5  1  0  0  0
  5  6  2  0  0  0
  5  7  1  0  0  0
  7  8  2  0  0  0
  8  9  1  0  0  0
  9 10  2  0  0  0
 10 11  1  0  0  0
 11 12  2  0  0  0
 12 13  1  0  0  0
 13 14  2  0  0  0
 14 15  1  0  0  0
 15  7  1  0  0  0
 14  9  1  0  0  0
M  END
> <minimizedAffinity>
-7.40644

> <CNNscore>
0.4742513895

> <CNNaffinity>
6.9070692062

> <CNN_VS>
3.2756872177

> <CNNaffinity_variance>
0.4964084625

$$$$
[H]/C(=C(\[H])C([H])([H])C([H])([H])C([H])([H])C([H])([H])C([H])([H])C([H])([H])C([H])([H])C([H])([H])[H])C([H])([H])C([H])([H])C([H])([H])C([H])([H])C([H])([H])C([H])([H])C([H])([H])C(=O)c1nc2c([H])c([H])c([H])nc2o1


 28 29  0  0  0  0  0  0  0  0999 V2000
   56.8667   -4.8413   -7.5348 C   0  0  0  0  0  0  0  0  0  0  0  0
   56.5904   -4.5213   -8.9246 C   0  0  0  0  0  0  0  0  0  0  0  0
   55.2967   -4.0745   -9.4363 C   0  0  0  0  0  0  0  0  0  0  0  0
   54.5697   -2.9967   -8.6978 C   0  0  0  0  0  0  0  0  0  0  0  0
   53.0877   -3.0905   -8.9720 C   0  0  0  0  0  0  0  0  0  0  0  0
   52.6917   -2.9751  -10.1500 O   0  0  0  0  0  0  0  0  0  0  0  0
   52.1514   -3.3071   -7.9049 C   0  0  0  0  0  0  0  0  0  0  0  0
   51.0658   -2.5394   -7.6362 N   0  0  0  0  0  0  0  0  0  0  0  0
   50.4142   -3.0329   -6.5668 C   0  0  0  0  0  0  0  0  0  0  0  0
   49.2965   -2.7043   -5.8506 C   0  0  0  0  0  0  0  0  0  0  0  0
   48.9231   -3.4717   -4.7768 C   0  0  0  0  0  0  0  0  0  0  0  0
   49.6914   -4.5699   -4.4392 C   0  0  0  0  0  0  0  0  0  0  0  0
   50.8054   -4.9074   -5.1436 N   0  0  0  0  0  0  0  0  0  0  0  0
   51.1610   -4.1491   -6.1924 C   0  0  0  0  0  0  0  0  0  0  0  0
   52.1817   -4.2706   -7.0163 O   0  0  0  0  0  0  0  0  0  0  0  0
   55.8048   -4.9761   -6.5226 C   0  0  0  0  0  0  0  0  0  0  0  0
   55.0977   -6.2875   -6.5145 C   0  0  0  0  0  0  0  0  0  0  0  0
   54.3467   -6.5937   -5.2274 C   0  0  0  0  0  0  0  0  0  0  0  0
   54.6283   -8.1429   -3.3699 C   0  0  0  0  0  0  0  0  0  0  0  0
   54.9936   -7.7288   -4.5580 C   0  0  0  0  0  0  0  0  0  0  0  0
   53.5680   -7.5501   -2.5862 C   0  0  0  0  0  0  0  0  0  0  0  0
   53.4751   -8.1244   -1.1740 C   0  0  0  0  0  0  0  0  0  0  0  0
   54.1049   -7.2330   -0.1687 C   0  0  0  0  0  0  0  0  0  0  0  0
   55.6178   -7.3993   -0.0285 C   0  0  0  0  0  0  0  0  0  0  0  0
   56.3389   -6.1143   -0.1769 C   0  0  0  0  0  0  0  0  0  0  0  0
   55.9585   -5.1806   -1.2541 C   0  0  0  0  0  0  0  0  0  0  0  0
   57.7701   -6.2200   -2.5984 C   0  0  0  0  0  0  0  0  0  0  0  0
   56.7349   -5.1503   -2.5125 C   0  0  0  0  0  0  0  0  0  0  0  0
 27 28  1  0  0  0
 28 26  1  0  0  0
 26 25  1  0  0  0
 25 24  1  0  0  0
 24 23  1  0  0  0
 23 22  1  0  0  0
 22 21  1  0  0  0
 21 19  1  0  0  0
 19 20  2  0  0  0
 20 18  1  0  0  0
 18 17  1  0  0  0
 17 16  1  0  0  0
 16  1  1  0  0  0
  1  2  1  0  0  0
  2  3  1  0  0  0
  3  4  1  0  0  0
  4  5  1  0  0  0
  5  6  2  0  0  0
  5  7  1  0  0  0
  7  8  2  0  0  0
  8  9  1  0  0  0
  9 10  2  0  0  0
 10 11  1  0  0  0
 11 12  2  0  0  0
 12 13  1  0  0  0
 13 14  2  0  0  0
 14 15  1  0  0  0
 15  7  1  0  0  0
 14  9  1  0  0  0
M  END
> <minimizedAffinity>
-6.53606

> <CNNscore>
0.4193674922

> <CNNaffinity>
7.1007719040

> <CNN_VS>
2.9778327942

> <CNNaffinity_variance>
0.0378242508

$$$$
[H]/C(=C(\[H])C([H])([H])C([H])([H])C([H])([H])C([H])([H])C([H])([H])C([H])([H])C([H])([H])C([H])([H])[H])C([H])([H])C([H])([H])C([H])([H])C([H])([H])C([H])([H])C([H])([H])C([H])([H])C(=O)c1nc2c([H])c([H])c([H])nc2o1


 28 29  0  0  0  0  0  0  0  0999 V2000
   50.8397   -3.1246   -7.6529 C   0  0  0  0  0  0  0  0  0  0  0  0
   49.9622   -2.3943   -6.7546 C   0  0  0  0  0  0  0  0  0  0  0  0
   49.2752   -2.9764   -5.6037 C   0  0  0  0  0  0  0  0  0  0  0  0
   49.3912   -4.4490   -5.3719 C   0  0  0  0  0  0  0  0  0  0  0  0
   50.3305   -4.7193   -4.2210 C   0  0  0  0  0  0  0  0  0  0  0  0
   49.9948   -4.3461   -3.0782 O   0  0  0  0  0  0  0  0  0  0  0  0
   51.5829   -5.3898   -4.4315 C   0  0  0  0  0  0  0  0  0  0  0  0
   52.2837   -6.0718   -3.4915 N   0  0  0  0  0  0  0  0  0  0  0  0
   53.4089   -6.5702   -4.0366 C   0  0  0  0  0  0  0  0  0  0  0  0
   54.4714   -7.3154   -3.6056 C   0  0  0  0  0  0  0  0  0  0  0  0
   55.4739   -7.6463   -4.4815 C   0  0  0  0  0  0  0  0  0  0  0  0
   55.3873   -7.2154   -5.7919 C   0  0  0  0  0  0  0  0  0  0  0  0
   54.3357   -6.4736   -6.2330 N   0  0  0  0  0  0  0  0  0  0  0  0
   53.3607   -6.1560   -5.3670 C   0  0  0  0  0  0  0  0  0  0  0  0
   52.2585   -5.4587   -5.5530 O   0  0  0  0  0  0  0  0  0  0  0  0
   51.9853   -2.4954   -8.3327 C   0  0  0  0  0  0  0  0  0  0  0  0
   53.0360   -3.4375   -8.8106 C   0  0  0  0  0  0  0  0  0  0  0  0
   54.4385   -2.8498   -8.8590 C   0  0  0  0  0  0  0  0  0  0  0  0
   56.1447   -4.5205   -9.3354 C   0  0  0  0  0  0  0  0  0  0  0  0
   55.4016   -3.8847   -8.4636 C   0  0  0  0  0  0  0  0  0  0  0  0
   56.1123   -4.2897  -10.7622 C   0  0  0  0  0  0  0  0  0  0  0  0
   57.4501   -3.8094  -11.3210 C   0  0  0  0  0  0  0  0  0  0  0  0
   57.5594   -4.0453  -12.7819 C   0  0  0  0  0  0  0  0  0  0  0  0
   56.2927   -3.7258  -13.5755 C   0  0  0  0  0  0  0  0  0  0  0  0
   56.1904   -4.5294  -14.8152 C   0  0  0  0  0  0  0  0  0  0  0  0
   56.0833   -3.8514  -16.1212 C   0  0  0  0  0  0  0  0  0  0  0  0
   58.5162   -3.5145  -16.4917 C   0  0  0  0  0  0  0  0  0  0  0  0
   57.1486   -2.9244  -16.5608 C   0  0  0  0  0  0  0  0  0  0  0  0
 27 28  1  0  0  0
 28 26  1  0  0  0
 26 25  1  0  0  0
 25 24  1  0  0  0
 24 23  1  0  0  0
 23 22  1  0  0  0
 22 21  1  0  0  0
 21 19  1  0  0  0
 19 20  2  0  0  0
 20 18  1  0  0  0
 18 17  1  0  0  0
 17 16  1  0  0  0
 16  1  1  0  0  0
  1  2  1  0  0  0
  2  3  1  0  0  0
  3  4  1  0  0  0
  4  5  1  0  0  0
  5  6  2  0  0  0
  5  7  1  0  0  0
  7  8  2  0  0  0
  8  9  1  0  0  0
  9 10  2  0  0  0
 10 11  1  0  0  0
 11 12  2  0  0  0
 12 13  1  0  0  0
 13 14  2  0  0  0
 14 15  1  0  0  0
 15  7  1  0  0  0
 14  9  1  0  0  0
M  END
> <minimizedAffinity>
-7.17575

> <CNNscore>
0.3694116771

> <CNNaffinity>
6.7597260475

> <CNN_VS>
2.4971218109

> <CNNaffinity_variance>
0.1822007149

$$$$
[H]/C(=C(\[H])C([H])([H])C([H])([H])C([H])([H])C([H])([H])C([H])([H])C([H])([H])C([H])([H])C([H])([H])[H])C([H])([H])C([H])([H])C([H])([H])C([H])([H])C([H])([H])C([H])([H])C([H])([H])C(=O)c1nc2c([H])c([H])c([H])nc2o1


 28 29  0  0  0  0  0  0  0  0999 V2000
   51.8154   -3.2421   -7.8579 C   0  0  0  0  0  0  0  0  0  0  0  0
   50.7418   -2.3890   -7.3786 C   0  0  0  0  0  0  0  0  0  0  0  0
   49.6719   -2.8193   -6.4811 C   0  0  0  0  0  0  0  0  0  0  0  0
   49.7191   -4.2072   -5.9268 C   0  0  0  0  0  0  0  0  0  0  0  0
   49.7012   -4.1625   -4.4176 C   0  0  0  0  0  0  0  0  0  0  0  0
   49.0701   -3.2434   -3.8565 O   0  0  0  0  0  0  0  0  0  0  0  0
   50.3934   -5.1526   -3.6411 C   0  0  0  0  0  0  0  0  0  0  0  0
   51.6129   -5.6728   -3.9274 N   0  0  0  0  0  0  0  0  0  0  0  0
   51.9542   -6.5739   -2.9876 C   0  0  0  0  0  0  0  0  0  0  0  0
   53.0208   -7.3945   -2.7444 C   0  0  0  0  0  0  0  0  0  0  0  0
   53.0179   -8.2099   -1.6413 C   0  0  0  0  0  0  0  0  0  0  0  0
   51.9275   -8.1839   -0.7924 C   0  0  0  0  0  0  0  0  0  0  0  0
   50.8604   -7.3721   -1.0232 N   0  0  0  0  0  0  0  0  0  0  0  0
   50.8744   -6.5787   -2.1057 C   0  0  0  0  0  0  0  0  0  0  0  0
   49.9735   -5.7190   -2.5357 O   0  0  0  0  0  0  0  0  0  0  0  0
   52.7293   -2.8393   -8.9409 C   0  0  0  0  0  0  0  0  0  0  0  0
   53.7888   -3.8304   -9.2795 C   0  0  0  0  0  0  0  0  0  0  0  0
   55.2062   -3.2787   -9.2443 C   0  0  0  0  0  0  0  0  0  0  0  0
   56.7599   -5.0560   -8.6470 C   0  0  0  0  0  0  0  0  0  0  0  0
   56.1452   -4.3589   -9.5704 C   0  0  0  0  0  0  0  0  0  0  0  0
   56.5959   -4.8558   -7.2247 C   0  0  0  0  0  0  0  0  0  0  0  0
   55.7616   -5.9483   -6.5591 C   0  0  0  0  0  0  0  0  0  0  0  0
   55.0259   -5.4419   -5.3742 C   0  0  0  0  0  0  0  0  0  0  0  0
   55.8863   -4.6764   -4.3691 C   0  0  0  0  0  0  0  0  0  0  0  0
   55.6326   -5.1037   -2.9741 C   0  0  0  0  0  0  0  0  0  0  0  0
   56.6192   -5.9500   -2.2760 C   0  0  0  0  0  0  0  0  0  0  0  0
   56.7787   -8.4267   -2.3758 C   0  0  0  0  0  0  0  0  0  0  0  0
   57.2021   -7.1230   -2.9627 C   0  0  0  0  0  0  0  0  0  0  0  0
 27 28  1  0  0  0
 28 26  1  0  0  0
 26 25  1  0  0  0
 25 24  1  0  0  0
 24 23  1  0  0  0
 23 22  1  0  0  0
 22 21  1  0  0  0
 21 19  1  0  0  0
 19 20  2  0  0  0
 20 18  1  0  0  0
 18 17  1  0  0  0
 17 16  1  0  0  0
 16  1  1  0  0  0
  1  2  1  0  0  0
  2  3  1  0  0  0
  3  4  1  0  0  0
  4  5  1  0  0  0
  5  6  2  0  0  0
  5  7  1  0  0  0
  7  8  2  0  0  0
  8  9  1  0  0  0
  9 10  2  0  0  0
 10 11  1  0  0  0
 11 12  2  0  0  0
 12 13  1  0  0  0
 13 14  2  0  0  0
 14 15  1  0  0  0
 15  7  1  0  0  0
 14  9  1  0  0  0
M  END
> <minimizedAffinity>
-6.90579

> <CNNscore>
0.3679163158

> <CNNaffinity>
6.9256439209

> <CNN_VS>
2.5480573177

> <CNNaffinity_variance>
0.2695543766

$$$$
[H]/C(=C(\[H])C([H])([H])C([H])([H])C([H])([H])C([H])([H])C([H])([H])C([H])([H])C([H])([H])C([H])([H])[H])C([H])([H])C([H])([H])C([H])([H])C([H])([H])C([H])([H])C([H])([H])C([H])([H])C(=O)c1nc2c([H])c([H])c([H])nc2o1


 28 29  0  0  0  0  0  0  0  0999 V2000
   50.4879   -3.2949   -7.5556 C   0  0  0  0  0  0  0  0  0  0  0  0
   49.6415   -2.7092   -6.5306 C   0  0  0  0  0  0  0  0  0  0  0  0
   49.4765   -3.2425   -5.1801 C   0  0  0  0  0  0  0  0  0  0  0  0
   50.0189   -4.6026   -4.8777 C   0  0  0  0  0  0  0  0  0  0  0  0
   49.7846   -4.9419   -3.4250 C   0  0  0  0  0  0  0  0  0  0  0  0
   48.6529   -4.7361   -2.9406 O   0  0  0  0  0  0  0  0  0  0  0  0
   50.8370   -5.4886   -2.6152 C   0  0  0  0  0  0  0  0  0  0  0  0
   51.0179   -6.8032   -2.3339 N   0  0  0  0  0  0  0  0  0  0  0  0
   52.1002   -6.9546   -1.5482 C   0  0  0  0  0  0  0  0  0  0  0  0
   52.7577   -7.9995   -0.9599 C   0  0  0  0  0  0  0  0  0  0  0  0
   53.8724   -7.7625   -0.1965 C   0  0  0  0  0  0  0  0  0  0  0  0
   54.3105   -6.4614   -0.0372 C   0  0  0  0  0  0  0  0  0  0  0  0
   53.6654   -5.4133   -0.6171 N   0  0  0  0  0  0  0  0  0  0  0  0
   52.5758   -5.6574   -1.3619 C   0  0  0  0  0  0  0  0  0  0  0  0
   51.7932   -4.8224   -2.0145 O   0  0  0  0  0  0  0  0  0  0  0  0
   51.7011   -2.6300   -8.0620 C   0  0  0  0  0  0  0  0  0  0  0  0
   52.8871   -3.5157   -8.2314 C   0  0  0  0  0  0  0  0  0  0  0  0
   54.1474   -2.8033   -8.6994 C   0  0  0  0  0  0  0  0  0  0  0  0
   56.1312   -4.2149   -8.7340 C   0  0  0  0  0  0  0  0  0  0  0  0
   55.3129   -3.4363   -8.0703 C   0  0  0  0  0  0  0  0  0  0  0  0
   55.9947   -4.5416  -10.1357 C   0  0  0  0  0  0  0  0  0  0  0  0
   57.0324   -3.8475  -11.0155 C   0  0  0  0  0  0  0  0  0  0  0  0
   57.1190   -4.4620  -12.3634 C   0  0  0  0  0  0  0  0  0  0  0  0
   56.2425   -3.7969  -13.4244 C   0  0  0  0  0  0  0  0  0  0  0  0
   56.1577   -4.6004  -14.6654 C   0  0  0  0  0  0  0  0  0  0  0  0
   56.2588   -3.9344  -15.9780 C   0  0  0  0  0  0  0  0  0  0  0  0
   58.4121   -3.6457  -17.1820 C   0  0  0  0  0  0  0  0  0  0  0  0
   57.4022   -3.0417  -16.2663 C   0  0  0  0  0  0  0  0  0  0  0  0
 27 28  1  0  0  0
 28 26  1  0  0  0
 26 25  1  0  0  0
 25 24  1  0  0  0
 24 23  1  0  0  0
 23 22  1  0  0  0
 22 21  1  0  0  0
 21 19  1  0  0  0
 19 20  2  0  0  0
 20 18  1  0  0  0
 18 17  1  0  0  0
 17 16  1  0  0  0
 16  1  1  0  0  0
  1  2  1  0  0  0
  2  3  1  0  0  0
  3  4  1  0  0  0
  4  5  1  0  0  0
  5  6  2  0  0  0
  5  7  1  0  0  0
  7  8  2  0  0  0
  8  9  1  0  0  0
  9 10  2  0  0  0
 10 11  1  0  0  0
 11 12  2  0  0  0
 12 13  1  0  0  0
 13 14  2  0  0  0
 14 15  1  0  0  0
 15  7  1  0  0  0
 14  9  1  0  0  0
M  END
> <minimizedAffinity>
-7.26224

> <CNNscore>
0.3576315045

> <CNNaffinity>
6.6111016273

> <CNN_VS>
2.3643381596

> <CNNaffinity_variance>
0.0271520671

$$$$
[H]/C(=C(\[H])C([H])([H])C([H])([H])C([H])([H])C([H])([H])C([H])([H])C([H])([H])C([H])([H])C([H])([H])[H])C([H])([H])C([H])([H])C([H])([H])C([H])([H])C([H])([H])C([H])([H])C([H])([H])C(=O)c1nc2c([H])c([H])c([H])nc2o1


 28 29  0  0  0  0  0  0  0  0999 V2000
   48.9085   -2.9210   -5.4730 C   0  0  0  0  0  0  0  0  0  0  0  0
   49.8242   -2.3996   -6.4730 C   0  0  0  0  0  0  0  0  0  0  0  0
   50.4402   -3.1931   -7.5343 C   0  0  0  0  0  0  0  0  0  0  0  0
   51.8570   -3.6391   -7.3624 C   0  0  0  0  0  0  0  0  0  0  0  0
   52.7060   -3.1133   -8.4950 C   0  0  0  0  0  0  0  0  0  0  0  0
   52.2319   -2.2241   -9.2314 O   0  0  0  0  0  0  0  0  0  0  0  0
   54.0294   -3.6220   -8.7238 C   0  0  0  0  0  0  0  0  0  0  0  0
   54.6154   -3.7874   -9.9359 N   0  0  0  0  0  0  0  0  0  0  0  0
   55.8558   -4.2850   -9.7765 C   0  0  0  0  0  0  0  0  0  0  0  0
   56.8892   -4.6481  -10.5952 C   0  0  0  0  0  0  0  0  0  0  0  0
   58.0513   -5.1355  -10.0534 C   0  0  0  0  0  0  0  0  0  0  0  0
   58.1532   -5.2498   -8.6798 C   0  0  0  0  0  0  0  0  0  0  0  0
   57.1325   -4.8920   -7.8545 N   0  0  0  0  0  0  0  0  0  0  0  0
   56.0002   -4.4164   -8.3960 C   0  0  0  0  0  0  0  0  0  0  0  0
   54.8902   -4.0103   -7.8143 O   0  0  0  0  0  0  0  0  0  0  0  0
   49.3656   -3.6586   -4.2825 C   0  0  0  0  0  0  0  0  0  0  0  0
   49.7942   -5.0636   -4.5316 C   0  0  0  0  0  0  0  0  0  0  0  0
   51.1926   -5.3966   -4.0333 C   0  0  0  0  0  0  0  0  0  0  0  0
   52.0036   -5.9736   -1.8110 C   0  0  0  0  0  0  0  0  0  0  0  0
   51.2257   -5.2457   -2.5735 C   0  0  0  0  0  0  0  0  0  0  0  0
   52.9063   -6.9925   -2.2975 C   0  0  0  0  0  0  0  0  0  0  0  0
   54.3489   -6.7802   -1.8430 C   0  0  0  0  0  0  0  0  0  0  0  0
   54.7550   -5.3556   -1.9287 C   0  0  0  0  0  0  0  0  0  0  0  0
   55.9342   -5.0842   -2.8625 C   0  0  0  0  0  0  0  0  0  0  0  0
   55.5809   -5.2899   -4.2859 C   0  0  0  0  0  0  0  0  0  0  0  0
   56.0610   -6.4921   -4.9937 C   0  0  0  0  0  0  0  0  0  0  0  0
   53.8427   -6.5745   -6.1081 C   0  0  0  0  0  0  0  0  0  0  0  0
   55.1281   -7.2774   -5.8306 C   0  0  0  0  0  0  0  0  0  0  0  0
 27 28  1  0  0  0
 28 26  1  0  0  0
 26 25  1  0  0  0
 25 24  1  0  0  0
 24 23  1  0  0  0
 23 22  1  0  0  0
 22 21  1  0  0  0
 21 19  1  0  0  0
 19 20  2  0  0  0
 20 18  1  0  0  0
 18 17  1  0  0  0
 17 16  1  0  0  0
 16  1  1  0  0  0
  1  2  1  0  0  0
  2  3  1  0  0  0
  3  4  1  0  0  0
  4  5  1  0  0  0
  5  6  2  0  0  0
  5  7  1  0  0  0
  7  8  2  0  0  0
  8  9  1  0  0  0
  9 10  2  0  0  0
 10 11  1  0  0  0
 11 12  2  0  0  0
 12 13  1  0  0  0
 13 14  2  0  0  0
 14 15  1  0  0  0
 15  7  1  0  0  0
 14  9  1  0  0  0
M  END
> <minimizedAffinity>
-7.66516

> <CNNscore>
0.3403955400

> <CNNaffinity>
6.9820885658

> <CNN_VS>
2.3766717911

> <CNNaffinity_variance>
0.2541436255

$$$$
[H]/C(=C(\[H])C([H])([H])C([H])([H])C([H])([H])C([H])([H])C([H])([H])C([H])([H])C([H])([H])C([H])([H])[H])C([H])([H])C([H])([H])C([H])([H])C([H])([H])C([H])([H])C([H])([H])C([H])([H])C(=O)c1nc2c([H])c([H])c([H])nc2o1


 28 29  0  0  0  0  0  0  0  0999 V2000
   55.9839   -3.9952  -12.0284 C   0  0  0  0  0  0  0  0  0  0  0  0
   55.4663   -3.8741  -10.6765 C   0  0  0  0  0  0  0  0  0  0  0  0
   54.0502   -3.9161  -10.3187 C   0  0  0  0  0  0  0  0  0  0  0  0
   53.6809   -4.0100   -8.8728 C   0  0  0  0  0  0  0  0  0  0  0  0
   52.4993   -3.1160   -8.5814 C   0  0  0  0  0  0  0  0  0  0  0  0
   52.2878   -2.1441   -9.3354 O   0  0  0  0  0  0  0  0  0  0  0  0
   51.6361   -3.3739   -7.4630 C   0  0  0  0  0  0  0  0  0  0  0  0
   50.5520   -2.6374   -7.1134 N   0  0  0  0  0  0  0  0  0  0  0  0
   49.9794   -3.1652   -6.0156 C   0  0  0  0  0  0  0  0  0  0  0  0
   48.9010   -2.8763   -5.2258 C   0  0  0  0  0  0  0  0  0  0  0  0
   48.6126   -3.6713   -4.1458 C   0  0  0  0  0  0  0  0  0  0  0  0
   49.4254   -4.7565   -3.8772 C   0  0  0  0  0  0  0  0  0  0  0  0
   50.5010   -5.0546   -4.6551 N   0  0  0  0  0  0  0  0  0  0  0  0
   50.7734   -4.2695   -5.7091 C   0  0  0  0  0  0  0  0  0  0  0  0
   51.7436   -4.3519   -6.5966 O   0  0  0  0  0  0  0  0  0  0  0  0
   57.4061   -3.7958  -12.3572 C   0  0  0  0  0  0  0  0  0  0  0  0
   58.3669   -4.2005  -11.2930 C   0  0  0  0  0  0  0  0  0  0  0  0
   58.0068   -5.4913  -10.5726 C   0  0  0  0  0  0  0  0  0  0  0  0
   58.6011   -5.3373   -8.2162 C   0  0  0  0  0  0  0  0  0  0  0  0
   58.9228   -5.6754   -9.4404 C   0  0  0  0  0  0  0  0  0  0  0  0
   57.3346   -4.7545   -7.8335 C   0  0  0  0  0  0  0  0  0  0  0  0
   56.3877   -5.7583   -7.1789 C   0  0  0  0  0  0  0  0  0  0  0  0
   55.5757   -5.1371   -6.1036 C   0  0  0  0  0  0  0  0  0  0  0  0
   55.0603   -6.1153   -5.0483 C   0  0  0  0  0  0  0  0  0  0  0  0
   54.7372   -5.4415   -3.7697 C   0  0  0  0  0  0  0  0  0  0  0  0
   55.7971   -4.7349   -3.0255 C   0  0  0  0  0  0  0  0  0  0  0  0
   56.9051   -5.8486   -1.1015 C   0  0  0  0  0  0  0  0  0  0  0  0
   56.9815   -5.4783   -2.5439 C   0  0  0  0  0  0  0  0  0  0  0  0
 27 28  1  0  0  0
 28 26  1  0  0  0
 26 25  1  0  0  0
 25 24  1  0  0  0
 24 23  1  0  0  0
 23 22  1  0  0  0
 22 21  1  0  0  0
 21 19  1  0  0  0
 19 20  2  0  0  0
 20 18  1  0  0  0
 18 17  1  0  0  0
 17 16  1  0  0  0
 16  1  1  0  0  0
  1  2  1  0  0  0
  2  3  1  0  0  0
  3  4  1  0  0  0
  4  5  1  0  0  0
  5  6  2  0  0  0
  5  7  1  0  0  0
  7  8  2  0  0  0
  8  9  1  0  0  0
  9 10  2  0  0  0
 10 11  1  0  0  0
 11 12  2  0  0  0
 12 13  1  0  0  0
 13 14  2  0  0  0
 14 15  1  0  0  0
 15  7  1  0  0  0
 14  9  1  0  0  0
M  END
> <minimizedAffinity>
-6.64073

> <CNNscore>
0.3217785656

> <CNNaffinity>
6.8648161888

> <CNN_VS>
2.2089507580

> <CNNaffinity_variance>
0.0470074303

$$$$
[H]/C(=C(\[H])C([H])([H])C([H])([H])C([H])([H])C([H])([H])C([H])([H])C([H])([H])C([H])([H])C([H])([H])[H])C([H])([H])C([H])([H])C([H])([H])C([H])([H])C([H])([H])C([H])([H])C([H])([H])C(=O)c1nc2c([H])c([H])c([H])nc2o1


 28 29  0  0  0  0  0  0  0  0999 V2000
   53.3774   -5.7716   -5.5346 C   0  0  0  0  0  0  0  0  0  0  0  0
   52.5243   -6.1280   -6.6550 C   0  0  0  0  0  0  0  0  0  0  0  0
   51.9627   -5.1766   -7.6114 C   0  0  0  0  0  0  0  0  0  0  0  0
   52.3144   -3.7302   -7.4709 C   0  0  0  0  0  0  0  0  0  0  0  0
   53.1689   -3.2899   -8.6355 C   0  0  0  0  0  0  0  0  0  0  0  0
   52.6938   -2.4676   -9.4453 O   0  0  0  0  0  0  0  0  0  0  0  0
   54.4985   -3.8033   -8.8116 C   0  0  0  0  0  0  0  0  0  0  0  0
   55.1318   -3.9702   -9.9995 N   0  0  0  0  0  0  0  0  0  0  0  0
   56.3631   -4.4724   -9.7909 C   0  0  0  0  0  0  0  0  0  0  0  0
   57.4271   -4.8388  -10.5680 C   0  0  0  0  0  0  0  0  0  0  0  0
   58.5648   -5.3306   -9.9805 C   0  0  0  0  0  0  0  0  0  0  0  0
   58.6114   -5.4459   -8.6040 C   0  0  0  0  0  0  0  0  0  0  0  0
   57.5599   -5.0849   -7.8199 N   0  0  0  0  0  0  0  0  0  0  0  0
   56.4518   -4.6050   -8.4059 C   0  0  0  0  0  0  0  0  0  0  0  0
   55.3209   -4.1951   -7.8687 O   0  0  0  0  0  0  0  0  0  0  0  0
   54.0689   -6.7770   -4.7090 C   0  0  0  0  0  0  0  0  0  0  0  0
   55.5550   -6.6727   -4.6932 C   0  0  0  0  0  0  0  0  0  0  0  0
   56.1745   -6.6700   -3.3036 C   0  0  0  0  0  0  0  0  0  0  0  0
   55.4122   -4.8619   -1.8617 C   0  0  0  0  0  0  0  0  0  0  0  0
   56.2154   -5.2903   -2.8039 C   0  0  0  0  0  0  0  0  0  0  0  0
   54.4085   -5.6729   -1.2099 C   0  0  0  0  0  0  0  0  0  0  0  0
   52.9818   -5.2372   -1.5379 C   0  0  0  0  0  0  0  0  0  0  0  0
   52.0343   -6.3790   -1.5227 C   0  0  0  0  0  0  0  0  0  0  0  0
   50.9275   -6.3027   -2.5741 C   0  0  0  0  0  0  0  0  0  0  0  0
   50.7221   -4.9233   -3.0725 C   0  0  0  0  0  0  0  0  0  0  0  0
   49.9546   -4.6989   -4.3124 C   0  0  0  0  0  0  0  0  0  0  0  0
   49.1880   -2.8573   -5.7924 C   0  0  0  0  0  0  0  0  0  0  0  0
   49.1060   -3.4951   -4.4471 C   0  0  0  0  0  0  0  0  0  0  0  0
 27 28  1  0  0  0
 28 26  1  0  0  0
 26 25  1  0  0  0
 25 24  1  0  0  0
 24 23  1  0  0  0
 23 22  1  0  0  0
 22 21  1  0  0  0
 21 19  1  0  0  0
 19 20  2  0  0  0
 20 18  1  0  0  0
 18 17  1  0  0  0
 17 16  1  0  0  0
 16  1  1  0  0  0
  1  2  1  0  0  0
  2  3  1  0  0  0
  3  4  1  0  0  0
  4  5  1  0  0  0
  5  6  2  0  0  0
  5  7  1  0  0  0
  7  8  2  0  0  0
  8  9  1  0  0  0
  9 10  2  0  0  0
 10 11  1  0  0  0
 11 12  2  0  0  0
 12 13  1  0  0  0
 13 14  2  0  0  0
 14 15  1  0  0  0
 15  7  1  0  0  0
 14  9  1  0  0  0
M  END
> <minimizedAffinity>
-6.90738

> <CNNscore>
0.3040555418

> <CNNaffinity>
7.0498704910

> <CNN_VS>
2.1435523033

> <CNNaffinity_variance>
0.0601970144

$$$$
[H]/C(=C(\[H])C([H])([H])C([H])([H])C([H])([H])C([H])([H])C([H])([H])C([H])([H])C([H])([H])C([H])([H])[H])C([H])([H])C([H])([H])C([H])([H])C([H])([H])C([H])([H])C([H])([H])C([H])([H])C(=O)c1nc2c([H])c([H])c([H])nc2o1


 28 29  0  0  0  0  0  0  0  0999 V2000
   54.5352   -3.0057   -8.6459 C   0  0  0  0  0  0  0  0  0  0  0  0
   55.3668   -4.1953   -8.5860 C   0  0  0  0  0  0  0  0  0  0  0  0
   56.4233   -4.5232   -9.5408 C   0  0  0  0  0  0  0  0  0  0  0  0
   56.6761   -3.5849  -10.6771 C   0  0  0  0  0  0  0  0  0  0  0  0
   57.6237   -4.2164  -11.6688 C   0  0  0  0  0  0  0  0  0  0  0  0
   58.5236   -4.9663  -11.2379 O   0  0  0  0  0  0  0  0  0  0  0  0
   57.4966   -3.9628  -13.0765 C   0  0  0  0  0  0  0  0  0  0  0  0
   56.3297   -3.8134  -13.7518 N   0  0  0  0  0  0  0  0  0  0  0  0
   56.5844   -3.5886  -15.0543 C   0  0  0  0  0  0  0  0  0  0  0  0
   55.8452   -3.3695  -16.1837 C   0  0  0  0  0  0  0  0  0  0  0  0
   56.4762   -3.1720  -17.3856 C   0  0  0  0  0  0  0  0  0  0  0  0
   57.8574   -3.1991  -17.4290 C   0  0  0  0  0  0  0  0  0  0  0  0
   58.6041   -3.4161  -16.3127 N   0  0  0  0  0  0  0  0  0  0  0  0
   57.9757   -3.6080  -15.1423 C   0  0  0  0  0  0  0  0  0  0  0  0
   58.4720   -3.8334  -13.9429 O   0  0  0  0  0  0  0  0  0  0  0  0
   53.2388   -2.9750   -9.3452 C   0  0  0  0  0  0  0  0  0  0  0  0
   52.1478   -2.2560   -8.6293 C   0  0  0  0  0  0  0  0  0  0  0  0
   51.2705   -3.1429   -7.7584 C   0  0  0  0  0  0  0  0  0  0  0  0
   49.5279   -2.7323   -6.1079 C   0  0  0  0  0  0  0  0  0  0  0  0
   50.2329   -2.3157   -7.1306 C   0  0  0  0  0  0  0  0  0  0  0  0
   49.6780   -4.0270   -5.4826 C   0  0  0  0  0  0  0  0  0  0  0  0
   49.6262   -3.9643   -3.9574 C   0  0  0  0  0  0  0  0  0  0  0  0
   49.8488   -5.2943   -3.3384 C   0  0  0  0  0  0  0  0  0  0  0  0
   51.1270   -5.4046   -2.5076 C   0  0  0  0  0  0  0  0  0  0  0  0
   52.3423   -5.4529   -3.3526 C   0  0  0  0  0  0  0  0  0  0  0  0
   52.2855   -6.0903   -4.6820 C   0  0  0  0  0  0  0  0  0  0  0  0
   53.1119   -6.4165   -7.0015 C   0  0  0  0  0  0  0  0  0  0  0  0
   53.0724   -5.5310   -5.8025 C   0  0  0  0  0  0  0  0  0  0  0  0
 27 28  1  0  0  0
 28 26  1  0  0  0
 26 25  1  0  0  0
 25 24  1  0  0  0
 24 23  1  0  0  0
 23 22  1  0  0  0
 22 21  1  0  0  0
 21 19  1  0  0  0
 19 20  2  0  0  0
 20 18  1  0  0  0
 18 17  1  0  0  0
 17 16  1  0  0  0
 16  1  1  0  0  0
  1  2  1  0  0  0
  2  3  1  0  0  0
  3  4  1  0  0  0
  4  5  1  0  0  0
  5  6  2  0  0  0
  5  7  1  0  0  0
  7  8  2  0  0  0
  8  9  1  0  0  0
  9 10  2  0  0  0
 10 11  1  0  0  0
 11 12  2  0  0  0
 12 13  1  0  0  0
 13 14  2  0  0  0
 14 15  1  0  0  0
 15  7  1  0  0  0
 14  9  1  0  0  0
M  END
> <minimizedAffinity>
-7.57549

> <CNNscore>
0.2893915772

> <CNNaffinity>
6.3033018112

> <CNN_VS>
1.8241224289

> <CNNaffinity_variance>
0.4152997136

$$$$
[H]c1c([H])c([H])c(C([H])([H])C([H])([H])C([H])([H])[H])c(OC([H])(C2=NC([H])([H])C([H])([H])N2[H])C([H])([H])[H])c1[H]


 18 19  0  0  0  0  0  0  0  0999 V2000
   62.9945   -7.4916   -8.5772 C   0  0  0  0  0  0  0  0  0  0  0  0
   63.7192   -6.3733   -8.2298 C   0  0  0  0  0  0  0  0  0  0  0  0
   64.8709   -6.0085   -8.8947 C   0  0  0  0  0  0  0  0  0  0  0  0
   65.3381   -6.7679   -9.9470 C   0  0  0  0  0  0  0  0  0  0  0  0
   64.6271   -7.8907  -10.3102 C   0  0  0  0  0  0  0  0  0  0  0  0
   63.4771   -8.2560   -9.6469 C   0  0  0  0  0  0  0  0  0  0  0  0
   61.7699   -7.9156   -7.8926 C   0  0  0  0  0  0  0  0  0  0  0  0
   62.5871   -9.0234   -5.8157 C   0  0  0  0  0  0  0  0  0  0  0  0
   61.8666   -7.7952   -6.3857 C   0  0  0  0  0  0  0  0  0  0  0  0
   62.7494   -9.3566   -9.9780 O   0  0  0  0  0  0  0  0  0  0  0  0
   63.1669  -10.6670  -10.1104 C   0  0  0  0  0  0  0  0  0  0  0  0
   62.3071  -11.5012  -11.0070 C   0  0  0  0  0  0  0  0  0  0  0  0
   63.2846  -11.3549   -8.7690 C   0  0  0  0  0  0  0  0  0  0  0  0
   64.4053  -11.4948   -8.1644 N   0  0  0  0  0  0  0  0  0  0  0  0
   64.2315  -12.1800   -6.9189 C   0  0  0  0  0  0  0  0  0  0  0  0
   62.8089  -12.6919   -6.9467 C   0  0  0  0  0  0  0  0  0  0  0  0
   62.2308  -11.9195   -8.0161 N   0  0  0  0  0  0  0  0  0  0  0  0
   61.1924  -11.7935   -8.2086 H   0  0  0  0  0  0  0  0  0  0  0  0
  8  9  1  0  0  0
  9  7  1  0  0  0
  7  1  1  0  0  0
  1  2  2  0  0  0
  2  3  1  0  0  0
  3  4  2  0  0  0
  4  5  1  0  0  0
  5  6  2  0  0  0
  6 10  1  0  0  0
 10 11  1  0  0  0
 11 12  1  0  0  0
 11 13  1  0  0  0
 13 14  2  0  0  0
 14 15  1  0  0  0
 15 16  1  0  0  0
 16 17  1  0  0  0
  6  1  1  0  0  0
 17 13  1  0  0  0
 17 18  1  0  0  0
M  END
> <minimizedAffinity>
-1.71948

> <CNNscore>
0.5255668163

> <CNNaffinity>
3.4381842613

> <CNN_VS>
1.8069955111

> <CNNaffinity_variance>
0.1978704035

$$$$
[H]c1c([H])c([H])c(C([H])([H])C([H])([H])C([H])([H])[H])c(OC([H])(C2=NC([H])([H])C([H])([H])N2[H])C([H])([H])[H])c1[H]


 18 19  0  0  0  0  0  0  0  0999 V2000
   52.0448   -4.1958   -7.0137 C   0  0  0  0  0  0  0  0  0  0  0  0
   51.3903   -3.1494   -7.6244 C   0  0  0  0  0  0  0  0  0  0  0  0
   51.9736   -2.4025   -8.6261 C   0  0  0  0  0  0  0  0  0  0  0  0
   53.2536   -2.6882   -9.0529 C   0  0  0  0  0  0  0  0  0  0  0  0
   53.9254   -3.7316   -8.4545 C   0  0  0  0  0  0  0  0  0  0  0  0
   53.3440   -4.4780   -7.4541 C   0  0  0  0  0  0  0  0  0  0  0  0
   51.4620   -5.0094   -5.9429 C   0  0  0  0  0  0  0  0  0  0  0  0
   50.5154   -6.8483   -7.3325 C   0  0  0  0  0  0  0  0  0  0  0  0
   50.1847   -5.7068   -6.3629 C   0  0  0  0  0  0  0  0  0  0  0  0
   53.9763   -5.5150   -6.8414 O   0  0  0  0  0  0  0  0  0  0  0  0
   55.0506   -5.4870   -5.9730 C   0  0  0  0  0  0  0  0  0  0  0  0
   56.3722   -5.7660   -6.6167 C   0  0  0  0  0  0  0  0  0  0  0  0
   54.8599   -6.4420   -4.8164 C   0  0  0  0  0  0  0  0  0  0  0  0
   55.4062   -7.6004   -4.7844 N   0  0  0  0  0  0  0  0  0  0  0  0
   55.0603   -8.2950   -3.5806 C   0  0  0  0  0  0  0  0  0  0  0  0
   53.9677   -7.4637   -2.9469 C   0  0  0  0  0  0  0  0  0  0  0  0
   54.0897   -6.2148   -3.6540 N   0  0  0  0  0  0  0  0  0  0  0  0
   53.6741   -5.2821   -3.3562 H   0  0  0  0  0  0  0  0  0  0  0  0
  8  9  1  0  0  0
  9  7  1  0  0  0
  7  1  1  0  0  0
  1  2  2  0  0  0
  2  3  1  0  0  0
  3  4  2  0  0  0
  4  5  1  0  0  0
  5  6  2  0  0  0
  6 10  1  0  0  0
 10 11  1  0  0  0
 11 12  1  0  0  0
 11 13  1  0  0  0
 13 14  2  0  0  0
 14 15  1  0  0  0
 15 16  1  0  0  0
 16 17  1  0  0  0
  6  1  1  0  0  0
 17 13  1  0  0  0
 17 18  1  0  0  0
M  END
> <minimizedAffinity>
-6.64462

> <CNNscore>
0.4060569406

> <CNNaffinity>
5.1480298042

> <CNN_VS>
2.0903933048

> <CNNaffinity_variance>
0.1538128853

$$$$
[H]c1c([H])c([H])c(C([H])([H])C([H])([H])C([H])([H])[H])c(OC([H])(C2=NC([H])([H])C([H])([H])N2[H])C([H])([H])[H])c1[H]


 18 19  0  0  0  0  0  0  0  0999 V2000
   53.1070   -4.1988   -7.9320 C   0  0  0  0  0  0  0  0  0  0  0  0
   53.3408   -3.6592   -9.1772 C   0  0  0  0  0  0  0  0  0  0  0  0
   54.5800   -3.7120   -9.7798 C   0  0  0  0  0  0  0  0  0  0  0  0
   55.6406   -4.3189   -9.1401 C   0  0  0  0  0  0  0  0  0  0  0  0
   55.4271   -4.8651   -7.8935 C   0  0  0  0  0  0  0  0  0  0  0  0
   54.1902   -4.8128   -7.2907 C   0  0  0  0  0  0  0  0  0  0  0  0
   51.8072   -4.1584   -7.2560 C   0  0  0  0  0  0  0  0  0  0  0  0
   49.8661   -2.7695   -6.5407 C   0  0  0  0  0  0  0  0  0  0  0  0
   51.0543   -2.8679   -7.5055 C   0  0  0  0  0  0  0  0  0  0  0  0
   53.9425   -5.3416   -6.0620 O   0  0  0  0  0  0  0  0  0  0  0  0
   54.8091   -5.9930   -5.2054 C   0  0  0  0  0  0  0  0  0  0  0  0
   55.0729   -7.4217   -5.5631 C   0  0  0  0  0  0  0  0  0  0  0  0
   54.3320   -5.9289   -3.7720 C   0  0  0  0  0  0  0  0  0  0  0  0
   54.8502   -5.1354   -2.9100 N   0  0  0  0  0  0  0  0  0  0  0  0
   54.2133   -5.2797   -1.6354 C   0  0  0  0  0  0  0  0  0  0  0  0
   53.3463   -6.5117   -1.7661 C   0  0  0  0  0  0  0  0  0  0  0  0
   53.2954   -6.6952   -3.1938 N   0  0  0  0  0  0  0  0  0  0  0  0
   52.6001   -7.3007   -3.7240 H   0  0  0  0  0  0  0  0  0  0  0  0
  8  9  1  0  0  0
  9  7  1  0  0  0
  7  1  1  0  0  0
  1  2  2  0  0  0
  2  3  1  0  0  0
  3  4  2  0  0  0
  4  5  1  0  0  0
  5  6  2  0  0  0
  6 10  1  0  0  0
 10 11  1  0  0  0
 11 12  1  0  0  0
 11 13  1  0  0  0
 13 14  2  0  0  0
 14 15  1  0  0  0
 15 16  1  0  0  0
 16 17  1  0  0  0
  6  1  1  0  0  0
 17 13  1  0  0  0
 17 18  1  0  0  0
M  END
> <minimizedAffinity>
-6.93692

> <CNNscore>
0.3662224710

> <CNNaffinity>
5.2360110283

> <CNN_VS>
1.9175448418

> <CNNaffinity_variance>
0.1496282071

$$$$
[H]c1c([H])c([H])c(C([H])([H])C([H])([H])C([H])([H])[H])c(OC([H])(C2=NC([H])([H])C([H])([H])N2[H])C([H])([H])[H])c1[H]


 18 19  0  0  0  0  0  0  0  0999 V2000
   51.0312   -5.0900   -6.7437 C   0  0  0  0  0  0  0  0  0  0  0  0
   49.8748   -5.8267   -6.8721 C   0  0  0  0  0  0  0  0  0  0  0  0
   49.8581   -7.0698   -7.4685 C   0  0  0  0  0  0  0  0  0  0  0  0
   51.0218   -7.6213   -7.9625 C   0  0  0  0  0  0  0  0  0  0  0  0
   52.1896   -6.9001   -7.8436 C   0  0  0  0  0  0  0  0  0  0  0  0
   52.2074   -5.6586   -7.2485 C   0  0  0  0  0  0  0  0  0  0  0  0
   51.0894   -3.7641   -6.1219 C   0  0  0  0  0  0  0  0  0  0  0  0
   50.1092   -1.8680   -7.4074 C   0  0  0  0  0  0  0  0  0  0  0  0
   49.8340   -2.9494   -6.3552 C   0  0  0  0  0  0  0  0  0  0  0  0
   53.3409   -4.9187   -7.1130 O   0  0  0  0  0  0  0  0  0  0  0  0
   54.6514   -5.3460   -7.0170 C   0  0  0  0  0  0  0  0  0  0  0  0
   55.3365   -4.9551   -5.7456 C   0  0  0  0  0  0  0  0  0  0  0  0
   55.4827   -4.8679   -8.1861 C   0  0  0  0  0  0  0  0  0  0  0  0
   54.9688   -4.2699   -9.1959 N   0  0  0  0  0  0  0  0  0  0  0  0
   55.9766   -3.9284  -10.1543 C   0  0  0  0  0  0  0  0  0  0  0  0
   57.2210   -4.6521   -9.6916 C   0  0  0  0  0  0  0  0  0  0  0  0
   56.8812   -5.0007   -8.3360 N   0  0  0  0  0  0  0  0  0  0  0  0
   57.5615   -5.3053   -7.5773 H   0  0  0  0  0  0  0  0  0  0  0  0
  8  9  1  0  0  0
  9  7  1  0  0  0
  7  1  1  0  0  0
  1  2  2  0  0  0
  2  3  1  0  0  0
  3  4  2  0  0  0
  4  5  1  0  0  0
  5  6  2  0  0  0
  6 10  1  0  0  0
 10 11  1  0  0  0
 11 12  1  0  0  0
 11 13  1  0  0  0
 13 14  2  0  0  0
 14 15  1  0  0  0
 15 16  1  0  0  0
 16 17  1  0  0  0
  6  1  1  0  0  0
 17 13  1  0  0  0
 17 18  1  0  0  0
M  END
> <minimizedAffinity>
-5.70336

> <CNNscore>
0.3530454934

> <CNNaffinity>
5.3293609619

> <CNN_VS>
1.8815069199

> <CNNaffinity_variance>
0.2484420836

$$$$
[H]c1c([H])c([H])c(C([H])([H])C([H])([H])C([H])([H])[H])c(OC([H])(C2=NC([H])([H])C([H])([H])N2[H])C([H])([H])[H])c1[H]


 18 19  0  0  0  0  0  0  0  0999 V2000
   50.9404   -5.1815   -6.5730 C   0  0  0  0  0  0  0  0  0  0  0  0
   49.9338   -6.1099   -6.7185 C   0  0  0  0  0  0  0  0  0  0  0  0
   50.0850   -7.2425   -7.4903 C   0  0  0  0  0  0  0  0  0  0  0  0
   51.2718   -7.4822   -8.1508 C   0  0  0  0  0  0  0  0  0  0  0  0
   52.2915   -6.5653   -8.0178 C   0  0  0  0  0  0  0  0  0  0  0  0
   52.1415   -5.4339   -7.2476 C   0  0  0  0  0  0  0  0  0  0  0  0
   50.8171   -3.9636   -5.7670 C   0  0  0  0  0  0  0  0  0  0  0  0
   50.1487   -2.1294   -7.3154 C   0  0  0  0  0  0  0  0  0  0  0  0
   49.6702   -3.0787   -6.2099 C   0  0  0  0  0  0  0  0  0  0  0  0
   53.1259   -4.5079   -7.0928 O   0  0  0  0  0  0  0  0  0  0  0  0
   54.4411   -4.6929   -6.7118 C   0  0  0  0  0  0  0  0  0  0  0  0
   55.3729   -5.0035   -7.8405 C   0  0  0  0  0  0  0  0  0  0  0  0
   54.5723   -5.7712   -5.6600 C   0  0  0  0  0  0  0  0  0  0  0  0
   55.1691   -6.8822   -5.8854 N   0  0  0  0  0  0  0  0  0  0  0  0
   55.1473   -7.7185   -4.7231 C   0  0  0  0  0  0  0  0  0  0  0  0
   54.1907   -7.0403   -3.7683 C   0  0  0  0  0  0  0  0  0  0  0  0
   54.0821   -5.7210   -4.3359 N   0  0  0  0  0  0  0  0  0  0  0  0
   53.7002   -4.8572   -3.8467 H   0  0  0  0  0  0  0  0  0  0  0  0
  8  9  1  0  0  0
  9  7  1  0  0  0
  7  1  1  0  0  0
  1  2  2  0  0  0
  2  3  1  0  0  0
  3  4  2  0  0  0
  4  5  1  0  0  0
  5  6  2  0  0  0
  6 10  1  0  0  0
 10 11  1  0  0  0
 11 12  1  0  0  0
 11 13  1  0  0  0
 13 14  2  0  0  0
 14 15  1  0  0  0
 15 16  1  0  0  0
 16 17  1  0  0  0
  6  1  1  0  0  0
 17 13  1  0  0  0
 17 18  1  0  0  0
M  END
> <minimizedAffinity>
-5.64181

> <CNNscore>
0.3492736816

> <CNNaffinity>
5.2581949234

> <CNN_VS>
1.8365490437

> <CNNaffinity_variance>
0.2778880000

$$$$
[H]c1c([H])c([H])c(C([H])([H])C([H])([H])C([H])([H])[H])c(OC([H])(C2=NC([H])([H])C([H])([H])N2[H])C([H])([H])[H])c1[H]


 18 19  0  0  0  0  0  0  0  0999 V2000
   50.8475   -4.4532   -6.1363 C   0  0  0  0  0  0  0  0  0  0  0  0
   50.2367   -3.3731   -6.7337 C   0  0  0  0  0  0  0  0  0  0  0  0
   49.2631   -2.6341   -6.0955 C   0  0  0  0  0  0  0  0  0  0  0  0
   48.8661   -2.9620   -4.8159 C   0  0  0  0  0  0  0  0  0  0  0  0
   49.4654   -4.0393   -4.2007 C   0  0  0  0  0  0  0  0  0  0  0  0
   50.4375   -4.7780   -4.8371 C   0  0  0  0  0  0  0  0  0  0  0  0
   51.8814   -5.2665   -6.7826 C   0  0  0  0  0  0  0  0  0  0  0  0
   54.2675   -4.7970   -7.3256 C   0  0  0  0  0  0  0  0  0  0  0  0
   52.8106   -4.4503   -7.6571 C   0  0  0  0  0  0  0  0  0  0  0  0
   51.0511   -5.8467   -4.2609 O   0  0  0  0  0  0  0  0  0  0  0  0
   51.9225   -5.8748   -3.1890 C   0  0  0  0  0  0  0  0  0  0  0  0
   53.3664   -5.9707   -3.5695 C   0  0  0  0  0  0  0  0  0  0  0  0
   51.5948   -6.9979   -2.2310 C   0  0  0  0  0  0  0  0  0  0  0  0
   50.5271   -7.0078   -1.5231 N   0  0  0  0  0  0  0  0  0  0  0  0
   50.4674   -8.1822   -0.7056 C   0  0  0  0  0  0  0  0  0  0  0  0
   51.8353   -8.8154   -0.8262 C   0  0  0  0  0  0  0  0  0  0  0  0
   52.3758   -8.1487   -1.9828 N   0  0  0  0  0  0  0  0  0  0  0  0
   53.2160   -8.4646   -2.5534 H   0  0  0  0  0  0  0  0  0  0  0  0
  8  9  1  0  0  0
  9  7  1  0  0  0
  7  1  1  0  0  0
  1  2  2  0  0  0
  2  3  1  0  0  0
  3  4  2  0  0  0
  4  5  1  0  0  0
  5  6  2  0  0  0
  6 10  1  0  0  0
 10 11  1  0  0  0
 11 12  1  0  0  0
 11 13  1  0  0  0
 13 14  2  0  0  0
 14 15  1  0  0  0
 15 16  1  0  0  0
 16 17  1  0  0  0
  6  1  1  0  0  0
 17 13  1  0  0  0
 17 18  1  0  0  0
M  END
> <minimizedAffinity>
-7.22930

> <CNNscore>
0.3417570591

> <CNNaffinity>
5.2029762268

> <CNN_VS>
1.7781538963

> <CNNaffinity_variance>
0.1466639638

$$$$
[H]c1c([H])c([H])c(C([H])([H])C([H])([H])C([H])([H])[H])c(OC([H])(C2=NC([H])([H])C([H])([H])N2[H])C([H])([H])[H])c1[H]


 18 19  0  0  0  0  0  0  0  0999 V2000
   52.6689   -3.5066   -7.8898 C   0  0  0  0  0  0  0  0  0  0  0  0
   51.4869   -2.8002   -7.9075 C   0  0  0  0  0  0  0  0  0  0  0  0
   50.3755   -3.2100   -7.2016 C   0  0  0  0  0  0  0  0  0  0  0  0
   50.4174   -4.3611   -6.4428 C   0  0  0  0  0  0  0  0  0  0  0  0
   51.5911   -5.0820   -6.4117 C   0  0  0  0  0  0  0  0  0  0  0  0
   52.7013   -4.6738   -7.1164 C   0  0  0  0  0  0  0  0  0  0  0  0
   53.8693   -3.1075   -8.6299 C   0  0  0  0  0  0  0  0  0  0  0  0
   55.4491   -4.1248  -10.2665 C   0  0  0  0  0  0  0  0  0  0  0  0
   53.9809   -3.7861   -9.9795 C   0  0  0  0  0  0  0  0  0  0  0  0
   53.8763   -5.3593   -7.1087 O   0  0  0  0  0  0  0  0  0  0  0  0
   54.9327   -5.2635   -6.2233 C   0  0  0  0  0  0  0  0  0  0  0  0
   56.2811   -5.4265   -6.8510 C   0  0  0  0  0  0  0  0  0  0  0  0
   54.8010   -6.2518   -5.0864 C   0  0  0  0  0  0  0  0  0  0  0  0
   55.3028   -7.4294   -5.1379 N   0  0  0  0  0  0  0  0  0  0  0  0
   55.0306   -8.1536   -3.9328 C   0  0  0  0  0  0  0  0  0  0  0  0
   54.0268   -7.3067   -3.1832 C   0  0  0  0  0  0  0  0  0  0  0  0
   54.1384   -6.0387   -3.8570 N   0  0  0  0  0  0  0  0  0  0  0  0
   53.7852   -5.1029   -3.4953 H   0  0  0  0  0  0  0  0  0  0  0  0
  8  9  1  0  0  0
  9  7  1  0  0  0
  7  1  1  0  0  0
  1  2  2  0  0  0
  2  3  1  0  0  0
  3  4  2  0  0  0
  4  5  1  0  0  0
  5  6  2  0  0  0
  6 10  1  0  0  0
 10 11  1  0  0  0
 11 12  1  0  0  0
 11 13  1  0  0  0
 13 14  2  0  0  0
 14 15  1  0  0  0
 15 16  1  0  0  0
 16 17  1  0  0  0
  6  1  1  0  0  0
 17 13  1  0  0  0
 17 18  1  0  0  0
M  END
> <minimizedAffinity>
-6.71568

> <CNNscore>
0.3277359903

> <CNNaffinity>
5.1907739639

> <CNN_VS>
1.7012034655

> <CNNaffinity_variance>
0.1076936126

$$$$
[H]c1c([H])c([H])c(C([H])([H])C([H])([H])C([H])([H])[H])c(OC([H])(C2=NC([H])([H])C([H])([H])N2[H])C([H])([H])[H])c1[H]


 18 19  0  0  0  0  0  0  0  0999 V2000
   53.8808   -4.6632   -7.7184 C   0  0  0  0  0  0  0  0  0  0  0  0
   54.0555   -4.0631   -8.9455 C   0  0  0  0  0  0  0  0  0  0  0  0
   55.2952   -3.9516   -9.5389 C   0  0  0  0  0  0  0  0  0  0  0  0
   56.4168   -4.4480   -8.9081 C   0  0  0  0  0  0  0  0  0  0  0  0
   56.2631   -5.0524   -7.6796 C   0  0  0  0  0  0  0  0  0  0  0  0
   55.0257   -5.1640   -7.0860 C   0  0  0  0  0  0  0  0  0  0  0  0
   52.5819   -4.7963   -7.0526 C   0  0  0  0  0  0  0  0  0  0  0  0
   50.6026   -6.2193   -6.5366 C   0  0  0  0  0  0  0  0  0  0  0  0
   51.9150   -6.1288   -7.3251 C   0  0  0  0  0  0  0  0  0  0  0  0
   54.8360   -5.7546   -5.8753 O   0  0  0  0  0  0  0  0  0  0  0  0
   55.4409   -5.4713   -4.6658 C   0  0  0  0  0  0  0  0  0  0  0  0
   56.5789   -6.3781   -4.3174 C   0  0  0  0  0  0  0  0  0  0  0  0
   54.4456   -5.4779   -3.5275 C   0  0  0  0  0  0  0  0  0  0  0  0
   53.2459   -5.9055   -3.6660 N   0  0  0  0  0  0  0  0  0  0  0  0
   52.5203   -5.7979   -2.4360 C   0  0  0  0  0  0  0  0  0  0  0  0
   53.4049   -4.9732   -1.5283 C   0  0  0  0  0  0  0  0  0  0  0  0
   54.6746   -5.0362   -2.2052 N   0  0  0  0  0  0  0  0  0  0  0  0
   55.6216   -4.7937   -1.7861 H   0  0  0  0  0  0  0  0  0  0  0  0
  8  9  1  0  0  0
  9  7  1  0  0  0
  7  1  1  0  0  0
  1  2  2  0  0  0
  2  3  1  0  0  0
  3  4  2  0  0  0
  4  5  1  0  0  0
  5  6  2  0  0  0
  6 10  1  0  0  0
 10 11  1  0  0  0
 11 12  1  0  0  0
 11 13  1  0  0  0
 13 14  2  0  0  0
 14 15  1  0  0  0
 15 16  1  0  0  0
 16 17  1  0  0  0
  6  1  1  0  0  0
 17 13  1  0  0  0
 17 18  1  0  0  0
M  END
> <minimizedAffinity>
-6.17001

> <CNNscore>
0.3253661692

> <CNNaffinity>
5.1629729271

> <CNN_VS>
1.6798567772

> <CNNaffinity_variance>
0.0850484967

$$$$
[H]c1c([H])c([H])c(C([H])([H])C([H])([H])C([H])([H])[H])c(OC([H])(C2=NC([H])([H])C([H])([H])N2[H])C([H])([H])[H])c1[H]


 18 19  0  0  0  0  0  0  0  0999 V2000
   51.8837   -3.9107   -7.3923 C   0  0  0  0  0  0  0  0  0  0  0  0
   51.1557   -2.8096   -7.7848 C   0  0  0  0  0  0  0  0  0  0  0  0
   50.0463   -2.3765   -7.0897 C   0  0  0  0  0  0  0  0  0  0  0  0
   49.6267   -3.0468   -5.9596 C   0  0  0  0  0  0  0  0  0  0  0  0
   50.3419   -4.1509   -5.5502 C   0  0  0  0  0  0  0  0  0  0  0  0
   51.4496   -4.5843   -6.2437 C   0  0  0  0  0  0  0  0  0  0  0  0
   53.0641   -4.4055   -8.1063 C   0  0  0  0  0  0  0  0  0  0  0  0
   55.3933   -3.5475   -7.8878 C   0  0  0  0  0  0  0  0  0  0  0  0
   54.0143   -3.2973   -8.5109 C   0  0  0  0  0  0  0  0  0  0  0  0
   52.1800   -5.6691   -5.8689 O   0  0  0  0  0  0  0  0  0  0  0  0
   53.2061   -5.7496   -4.9471 C   0  0  0  0  0  0  0  0  0  0  0  0
   54.4731   -6.3376   -5.4836 C   0  0  0  0  0  0  0  0  0  0  0  0
   52.7923   -6.5234   -3.7156 C   0  0  0  0  0  0  0  0  0  0  0  0
   51.5790   -6.5668   -3.3068 N   0  0  0  0  0  0  0  0  0  0  0  0
   51.4673   -7.3655   -2.1233 C   0  0  0  0  0  0  0  0  0  0  0  0
   52.8919   -7.6261   -1.6886 C   0  0  0  0  0  0  0  0  0  0  0  0
   53.6370   -7.2777   -2.8710 N   0  0  0  0  0  0  0  0  0  0  0  0
   54.6469   -7.5408   -3.0762 H   0  0  0  0  0  0  0  0  0  0  0  0
  8  9  1  0  0  0
  9  7  1  0  0  0
  7  1  1  0  0  0
  1  2  2  0  0  0
  2  3  1  0  0  0
  3  4  2  0  0  0
  4  5  1  0  0  0
  5  6  2  0  0  0
  6 10  1  0  0  0
 10 11  1  0  0  0
 11 12  1  0  0  0
 11 13  1  0  0  0
 13 14  2  0  0  0
 14 15  1  0  0  0
 15 16  1  0  0  0
 16 17  1  0  0  0
  6  1  1  0  0  0
 17 13  1  0  0  0
 17 18  1  0  0  0
M  END
> <minimizedAffinity>
-7.24254

> <CNNscore>
0.3035149276

> <CNNaffinity>
5.2247409821

> <CNN_VS>
1.5857869387

> <CNNaffinity_variance>
0.1092709303

$$$$
[H]C1=C2C([H])([H])C([H])([H])C([H])([H])C([H])([H])[C@]2([H])/C(=C(\[H])C([H])([H])C2([H])C([H])([H])C([H])([H])C(C([H])([H])[H])(C([H])([H])[H])[N+]2(C([H])([H])[H])C([H])([H])[H])[C@]2([H])[C@@]1([H])C(=O)O[C@@]2([H])C([H])([H])[H]


 26 29  0  0  0  0  0  0  0  0999 V2000
   61.1003   -8.7377  -10.0630 C   0  0  0  0  0  0  0  0  0  0  0  0
   61.3778   -7.3520  -10.7116 C   0  0  0  0  0  0  0  0  0  0  0  0
   62.1669   -6.6912   -9.7550 O   0  0  0  0  0  0  0  0  0  0  0  0
   61.2660   -6.3381   -8.7525 C   0  0  0  0  0  0  0  0  0  0  0  0
   61.5950   -5.8296   -7.6574 O   0  0  0  0  0  0  0  0  0  0  0  0
   59.8949   -6.6660   -9.2100 C   0  0  0  0  0  0  0  0  0  0  0  0
   58.8338   -5.8332   -8.7145 C   0  0  0  0  0  0  0  0  0  0  0  0
   58.2085   -4.9197   -9.3755 C   0  0  0  0  0  0  0  0  0  0  0  0
   57.1198   -4.1037   -8.7869 C   0  0  0  0  0  0  0  0  0  0  0  0
   56.1394   -3.7904   -9.9094 C   0  0  0  0  0  0  0  0  0  0  0  0
   56.1069   -4.8677  -10.9454 C   0  0  0  0  0  0  0  0  0  0  0  0
   57.4046   -5.1704  -11.6111 C   0  0  0  0  0  0  0  0  0  0  0  0
   58.5580   -4.6486  -10.7576 C   0  0  0  0  0  0  0  0  0  0  0  0
   59.8415   -5.3290  -11.2296 C   0  0  0  0  0  0  0  0  0  0  0  0
   60.4802   -4.5984  -12.0904 C   0  0  0  0  0  0  0  0  0  0  0  0
   60.1305   -6.6189  -10.7443 C   0  0  0  0  0  0  0  0  0  0  0  0
   61.7241   -4.9271  -12.7359 C   0  0  0  0  0  0  0  0  0  0  0  0
   61.6320   -4.3259  -14.1781 C   0  0  0  0  0  0  0  0  0  0  0  0
   61.4687   -2.8338  -14.0911 C   0  0  0  0  0  0  0  0  0  0  0  0
   62.8791   -2.3631  -14.4487 C   0  0  0  0  0  0  0  0  0  0  0  0
   63.2107   -3.3587  -15.5499 C   0  0  0  0  0  0  0  0  0  0  0  0
   62.3819   -2.9753  -16.7553 C   0  0  0  0  0  0  0  0  0  0  0  0
   64.6550   -3.3422  -15.9324 C   0  0  0  0  0  0  0  0  0  0  0  0
   62.7838   -4.6075  -14.9557 N   0  0  0  0  0  0  0  0  0  0  0  0
   62.3534   -5.4546  -16.0817 C   0  0  0  0  0  0  0  0  0  0  0  0
   63.8441   -5.3095  -14.3023 C   0  0  0  0  0  0  0  0  0  0  0  0
  1  2  1  0  0  0
  2  3  1  0  0  0
  3  4  1  0  0  0
  4  5  2  0  0  0
  4  6  1  0  0  0
  6  7  1  0  0  0
  7  8  2  0  0  0
  8  9  1  0  0  0
  9 10  1  0  0  0
 10 11  1  0  0  0
 11 12  1  0  0  0
 12 13  1  0  0  0
 13 14  1  0  0  0
 14 15  2  0  0  0
 15 17  1  0  0  0
 17 18  1  0  0  0
 18 19  1  0  0  0
 19 20  1  0  0  0
 20 21  1  0  0  0
 21 22  1  0  0  0
 21 23  1  0  0  0
 21 24  1  0  0  0
 24 25  1  0  0  0
 24 26  1  0  0  0
 14 16  1  0  0  0
 16  2  1  0  0  0
 16  6  1  0  0  0
 13  8  1  0  0  0
 24 18  1  0  0  0
M  CHG 1  24   1
M  END
> <minimizedAffinity>
0.44985

> <CNNscore>
0.6719952822

> <CNNaffinity>
5.1643862724

> <CNN_VS>
3.4704432487

> <CNNaffinity_variance>
0.2825545371

$$$$
[H]C1=C2C([H])([H])C([H])([H])C([H])([H])C([H])([H])[C@]2([H])/C(=C(\[H])C([H])([H])C2([H])C([H])([H])C([H])([H])C(C([H])([H])[H])(C([H])([H])[H])[N+]2(C([H])([H])[H])C([H])([H])[H])[C@]2([H])[C@@]1([H])C(=O)O[C@@]2([H])C([H])([H])[H]


 26 29  0  0  0  0  0  0  0  0999 V2000
   58.9823   -7.1830  -10.1526 C   0  0  0  0  0  0  0  0  0  0  0  0
   59.6735   -5.9152  -10.7294 C   0  0  0  0  0  0  0  0  0  0  0  0
   59.4879   -4.9511   -9.7241 O   0  0  0  0  0  0  0  0  0  0  0  0
   58.1457   -4.5942   -9.8353 C   0  0  0  0  0  0  0  0  0  0  0  0
   57.5497   -3.8380   -9.0359 O   0  0  0  0  0  0  0  0  0  0  0  0
   57.5771   -5.2542  -11.0345 C   0  0  0  0  0  0  0  0  0  0  0  0
   56.5165   -4.5593  -11.7106 C   0  0  0  0  0  0  0  0  0  0  0  0
   56.6128   -3.9195  -12.8258 C   0  0  0  0  0  0  0  0  0  0  0  0
   55.4639   -3.2286  -13.4586 C   0  0  0  0  0  0  0  0  0  0  0  0
   55.6622   -3.3204  -14.9657 C   0  0  0  0  0  0  0  0  0  0  0  0
   56.4013   -4.5581  -15.3619 C   0  0  0  0  0  0  0  0  0  0  0  0
   57.7540   -4.7289  -14.7622 C   0  0  0  0  0  0  0  0  0  0  0  0
   57.8846   -3.8493  -13.5211 C   0  0  0  0  0  0  0  0  0  0  0  0
   59.0769   -4.3509  -12.7088 C   0  0  0  0  0  0  0  0  0  0  0  0
   60.1560   -3.6860  -12.9849 C   0  0  0  0  0  0  0  0  0  0  0  0
   58.8844   -5.4498  -11.8497 C   0  0  0  0  0  0  0  0  0  0  0  0
   61.4577   -3.8883  -12.4045 C   0  0  0  0  0  0  0  0  0  0  0  0
   62.4458   -4.0427  -13.6085 C   0  0  0  0  0  0  0  0  0  0  0  0
   62.0689   -5.2537  -14.4160 C   0  0  0  0  0  0  0  0  0  0  0  0
   61.3830   -4.6027  -15.6178 C   0  0  0  0  0  0  0  0  0  0  0  0
   62.2977   -3.4038  -15.8174 C   0  0  0  0  0  0  0  0  0  0  0  0
   63.5983   -3.9305  -16.3811 C   0  0  0  0  0  0  0  0  0  0  0  0
   61.7346   -2.3949  -16.7649 C   0  0  0  0  0  0  0  0  0  0  0  0
   62.4370   -2.9115  -14.4635 N   0  0  0  0  0  0  0  0  0  0  0  0
   63.7784   -2.3056  -14.3990 C   0  0  0  0  0  0  0  0  0  0  0  0
   61.5072   -1.8732  -14.1454 C   0  0  0  0  0  0  0  0  0  0  0  0
  1  2  1  0  0  0
  2  3  1  0  0  0
  3  4  1  0  0  0
  4  5  2  0  0  0
  4  6  1  0  0  0
  6  7  1  0  0  0
  7  8  2  0  0  0
  8  9  1  0  0  0
  9 10  1  0  0  0
 10 11  1  0  0  0
 11 12  1  0  0  0
 12 13  1  0  0  0
 13 14  1  0  0  0
 14 15  2  0  0  0
 15 17  1  0  0  0
 17 18  1  0  0  0
 18 19  1  0  0  0
 19 20  1  0  0  0
 20 21  1  0  0  0
 21 22  1  0  0  0
 21 23  1  0  0  0
 21 24  1  0  0  0
 24 25  1  0  0  0
 24 26  1  0  0  0
 14 16  1  0  0  0
 16  2  1  0  0  0
 16  6  1  0  0  0
 13  8  1  0  0  0
 24 18  1  0  0  0
M  CHG 1  24   1
M  END
> <minimizedAffinity>
8.04106

> <CNNscore>
0.5983224511

> <CNNaffinity>
4.7132859230

> <CNN_VS>
2.8200647831

> <CNNaffinity_variance>
0.2175512314

$$$$
[H]C1=C2C([H])([H])C([H])([H])C([H])([H])C([H])([H])[C@]2([H])/C(=C(\[H])C([H])([H])C2([H])C([H])([H])C([H])([H])C(C([H])([H])[H])(C([H])([H])[H])[N+]2(C([H])([H])[H])C([H])([H])[H])[C@]2([H])[C@@]1([H])C(=O)O[C@@]2([H])C([H])([H])[H]


 26 29  0  0  0  0  0  0  0  0999 V2000
   59.4307   -7.9521  -10.2840 C   0  0  0  0  0  0  0  0  0  0  0  0
   59.3633   -6.5442  -10.9406 C   0  0  0  0  0  0  0  0  0  0  0  0
   60.4351   -5.8527  -10.3510 O   0  0  0  0  0  0  0  0  0  0  0  0
   59.9899   -5.5650   -9.0624 C   0  0  0  0  0  0  0  0  0  0  0  0
   60.7019   -5.0536   -8.1693 O   0  0  0  0  0  0  0  0  0  0  0  0
   58.5667   -5.9640   -8.9523 C   0  0  0  0  0  0  0  0  0  0  0  0
   57.7513   -5.1995   -8.0491 C   0  0  0  0  0  0  0  0  0  0  0  0
   56.8733   -4.3141   -8.3770 C   0  0  0  0  0  0  0  0  0  0  0  0
   56.0702   -3.5693   -7.3780 C   0  0  0  0  0  0  0  0  0  0  0  0
   54.7117   -3.2969   -8.0102 C   0  0  0  0  0  0  0  0  0  0  0  0
   54.3217   -4.3602   -8.9861 C   0  0  0  0  0  0  0  0  0  0  0  0
   55.2618   -4.5796  -10.1203 C   0  0  0  0  0  0  0  0  0  0  0  0
   56.6333   -4.0049   -9.7743 C   0  0  0  0  0  0  0  0  0  0  0  0
   57.6548   -4.6048  -10.7384 C   0  0  0  0  0  0  0  0  0  0  0  0
   57.8651   -3.8275  -11.7554 C   0  0  0  0  0  0  0  0  0  0  0  0
   58.1725   -5.8827  -10.4522 C   0  0  0  0  0  0  0  0  0  0  0  0
   58.7652   -4.0762  -12.8509 C   0  0  0  0  0  0  0  0  0  0  0  0
   58.2607   -3.1829  -14.0329 C   0  0  0  0  0  0  0  0  0  0  0  0
   59.4191   -2.8239  -14.9216 C   0  0  0  0  0  0  0  0  0  0  0  0
   59.1869   -3.7683  -16.1018 C   0  0  0  0  0  0  0  0  0  0  0  0
   57.6714   -3.6848  -16.2033 C   0  0  0  0  0  0  0  0  0  0  0  0
   57.3413   -2.3179  -16.7596 C   0  0  0  0  0  0  0  0  0  0  0  0
   57.0913   -4.7257  -17.1048 C   0  0  0  0  0  0  0  0  0  0  0  0
   57.2754   -3.8325  -14.8190 N   0  0  0  0  0  0  0  0  0  0  0  0
   56.0281   -3.0608  -14.6800 C   0  0  0  0  0  0  0  0  0  0  0  0
   56.9591   -5.1815  -14.4666 C   0  0  0  0  0  0  0  0  0  0  0  0
  1  2  1  0  0  0
  2  3  1  0  0  0
  3  4  1  0  0  0
  4  5  2  0  0  0
  4  6  1  0  0  0
  6  7  1  0  0  0
  7  8  2  0  0  0
  8  9  1  0  0  0
  9 10  1  0  0  0
 10 11  1  0  0  0
 11 12  1  0  0  0
 12 13  1  0  0  0
 13 14  1  0  0  0
 14 15  2  0  0  0
 15 17  1  0  0  0
 17 18  1  0  0  0
 18 19  1  0  0  0
 19 20  1  0  0  0
 20 21  1  0  0  0
 21 22  1  0  0  0
 21 23  1  0  0  0
 21 24  1  0  0  0
 24 25  1  0  0  0
 24 26  1  0  0  0
 14 16  1  0  0  0
 16  2  1  0  0  0
 16  6  1  0  0  0
 13  8  1  0  0  0
 24 18  1  0  0  0
M  CHG 1  24   1
M  END
> <minimizedAffinity>
0.06347

> <CNNscore>
0.5466195941

> <CNNaffinity>
5.7460517883

> <CNN_VS>
3.1409044266

> <CNNaffinity_variance>
0.2156049311

$$$$
[H]C1=C2C([H])([H])C([H])([H])C([H])([H])C([H])([H])[C@]2([H])/C(=C(\[H])C([H])([H])C2([H])C([H])([H])C([H])([H])C(C([H])([H])[H])(C([H])([H])[H])[N+]2(C([H])([H])[H])C([H])([H])[H])[C@]2([H])[C@@]1([H])C(=O)O[C@@]2([H])C([H])([H])[H]


 26 29  0  0  0  0  0  0  0  0999 V2000
   54.7057   -5.2705  -14.9146 C   0  0  0  0  0  0  0  0  0  0  0  0
   56.1764   -4.7685  -14.9671 C   0  0  0  0  0  0  0  0  0  0  0  0
   56.8785   -5.8576  -15.5108 O   0  0  0  0  0  0  0  0  0  0  0  0
   56.9497   -6.7757  -14.4652 C   0  0  0  0  0  0  0  0  0  0  0  0
   57.4006   -7.9377  -14.5780 O   0  0  0  0  0  0  0  0  0  0  0  0
   56.4108   -6.1409  -13.2390 C   0  0  0  0  0  0  0  0  0  0  0  0
   56.9699   -6.5764  -11.9889 C   0  0  0  0  0  0  0  0  0  0  0  0
   57.8069   -5.9223  -11.2582 C   0  0  0  0  0  0  0  0  0  0  0  0
   58.3350   -6.4455   -9.9756 C   0  0  0  0  0  0  0  0  0  0  0  0
   58.5635   -5.2469   -9.0643 C   0  0  0  0  0  0  0  0  0  0  0  0
   57.6087   -4.1325   -9.3499 C   0  0  0  0  0  0  0  0  0  0  0  0
   57.6295   -3.5971  -10.7396 C   0  0  0  0  0  0  0  0  0  0  0  0
   58.2764   -4.6145  -11.6765 C   0  0  0  0  0  0  0  0  0  0  0  0
   57.9066   -4.2396  -13.1102 C   0  0  0  0  0  0  0  0  0  0  0  0
   58.8286   -3.5170  -13.6675 C   0  0  0  0  0  0  0  0  0  0  0  0
   56.6549   -4.6519  -13.6063 C   0  0  0  0  0  0  0  0  0  0  0  0
   58.8118   -2.9933  -15.0082 C   0  0  0  0  0  0  0  0  0  0  0  0
   59.9216   -3.7738  -15.7884 C   0  0  0  0  0  0  0  0  0  0  0  0
   59.7945   -3.4919  -17.2598 C   0  0  0  0  0  0  0  0  0  0  0  0
   60.9436   -2.5050  -17.4696 C   0  0  0  0  0  0  0  0  0  0  0  0
   61.9940   -3.1388  -16.5703 C   0  0  0  0  0  0  0  0  0  0  0  0
   62.4646   -4.3985  -17.2620 C   0  0  0  0  0  0  0  0  0  0  0  0
   63.1711   -2.2488  -16.3354 C   0  0  0  0  0  0  0  0  0  0  0  0
   61.2289   -3.4141  -15.3730 N   0  0  0  0  0  0  0  0  0  0  0  0
   61.8431   -4.6140  -14.7783 C   0  0  0  0  0  0  0  0  0  0  0  0
   61.3291   -2.3787  -14.3924 C   0  0  0  0  0  0  0  0  0  0  0  0
  1  2  1  0  0  0
  2  3  1  0  0  0
  3  4  1  0  0  0
  4  5  2  0  0  0
  4  6  1  0  0  0
  6  7  1  0  0  0
  7  8  2  0  0  0
  8  9  1  0  0  0
  9 10  1  0  0  0
 10 11  1  0  0  0
 11 12  1  0  0  0
 12 13  1  0  0  0
 13 14  1  0  0  0
 14 15  2  0  0  0
 15 17  1  0  0  0
 17 18  1  0  0  0
 18 19  1  0  0  0
 19 20  1  0  0  0
 20 21  1  0  0  0
 21 22  1  0  0  0
 21 23  1  0  0  0
 21 24  1  0  0  0
 24 25  1  0  0  0
 24 26  1  0  0  0
 14 16  1  0  0  0
 16  2  1  0  0  0
 16  6  1  0  0  0
 13  8  1  0  0  0
 24 18  1  0  0  0
M  CHG 1  24   1
M  END
> <minimizedAffinity>
14.43018

> <CNNscore>
0.5219416022

> <CNNaffinity>
4.7616395950

> <CNN_VS>
2.4852979183

> <CNNaffinity_variance>
0.2173390687

$$$$
[H]C1=C2C([H])([H])C([H])([H])C([H])([H])C([H])([H])[C@]2([H])/C(=C(\[H])C([H])([H])C2([H])C([H])([H])C([H])([H])C(C([H])([H])[H])(C([H])([H])[H])[N+]2(C([H])([H])[H])C([H])([H])[H])[C@]2([H])[C@@]1([H])C(=O)O[C@@]2([H])C([H])([H])[H]


 26 29  0  0  0  0  0  0  0  0999 V2000
   58.6796   -2.3269  -13.3243 C   0  0  0  0  0  0  0  0  0  0  0  0
   59.0837   -3.6492  -12.6131 C   0  0  0  0  0  0  0  0  0  0  0  0
   58.5989   -4.6489  -13.4734 O   0  0  0  0  0  0  0  0  0  0  0  0
   57.2217   -4.6450  -13.2616 C   0  0  0  0  0  0  0  0  0  0  0  0
   56.4049   -5.3184  -13.9290 O   0  0  0  0  0  0  0  0  0  0  0  0
   56.9173   -3.7270  -12.1385 C   0  0  0  0  0  0  0  0  0  0  0  0
   55.7716   -4.0512  -11.3338 C   0  0  0  0  0  0  0  0  0  0  0  0
   55.7904   -4.5581  -10.1484 C   0  0  0  0  0  0  0  0  0  0  0  0
   54.5572   -4.8616   -9.3837 C   0  0  0  0  0  0  0  0  0  0  0  0
   54.8797   -4.6442   -7.9113 C   0  0  0  0  0  0  0  0  0  0  0  0
   55.9224   -3.5913   -7.7129 C   0  0  0  0  0  0  0  0  0  0  0  0
   57.2295   -3.8345   -8.3843 C   0  0  0  0  0  0  0  0  0  0  0  0
   57.0542   -4.8596   -9.5022 C   0  0  0  0  0  0  0  0  0  0  0  0
   58.2708   -4.7702  -10.4213 C   0  0  0  0  0  0  0  0  0  0  0  0
   59.1744   -5.6451  -10.1036 C   0  0  0  0  0  0  0  0  0  0  0  0
   58.2881   -3.7677  -11.4100 C   0  0  0  0  0  0  0  0  0  0  0  0
   60.4412   -5.8431  -10.7579 C   0  0  0  0  0  0  0  0  0  0  0  0
   61.3143   -6.6757   -9.7608 C   0  0  0  0  0  0  0  0  0  0  0  0
   60.4557   -7.7043   -9.0787 C   0  0  0  0  0  0  0  0  0  0  0  0
   60.8670   -8.9727   -9.8274 C   0  0  0  0  0  0  0  0  0  0  0  0
   62.3608   -8.7188   -9.9617 C   0  0  0  0  0  0  0  0  0  0  0  0
   62.9636   -8.8958   -8.5862 C   0  0  0  0  0  0  0  0  0  0  0  0
   63.0282   -9.6648  -10.9064 C   0  0  0  0  0  0  0  0  0  0  0  0
   62.3862   -7.3420  -10.4074 N   0  0  0  0  0  0  0  0  0  0  0  0
   63.6372   -6.7763   -9.8729 C   0  0  0  0  0  0  0  0  0  0  0  0
   62.4580   -7.2136  -11.8294 C   0  0  0  0  0  0  0  0  0  0  0  0
  1  2  1  0  0  0
  2  3  1  0  0  0
  3  4  1  0  0  0
  4  5  2  0  0  0
  4  6  1  0  0  0
  6  7  1  0  0  0
  7  8  2  0  0  0
  8  9  1  0  0  0
  9 10  1  0  0  0
 10 11  1  0  0  0
 11 12  1  0  0  0
 12 13  1  0  0  0
 13 14  1  0  0  0
 14 15  2  0  0  0
 15 17  1  0  0  0
 17 18  1  0  0  0
 18 19  1  0  0  0
 19 20  1  0  0  0
 20 21  1  0  0  0
 21 22  1  0  0  0
 21 23  1  0  0  0
 21 24  1  0  0  0
 24 25  1  0  0  0
 24 26  1  0  0  0
 14 16  1  0  0  0
 16  2  1  0  0  0
 16  6  1  0  0  0
 13  8  1  0  0  0
 24 18  1  0  0  0
M  CHG 1  24   1
M  END
> <minimizedAffinity>
-1.36620

> <CNNscore>
0.5003712773

> <CNNaffinity>
5.4167518616

> <CNN_VS>
2.7103869915

> <CNNaffinity_variance>
0.2813385427

$$$$
[H]C1=C2C([H])([H])C([H])([H])C([H])([H])C([H])([H])[C@]2([H])/C(=C(\[H])C([H])([H])C2([H])C([H])([H])C([H])([H])C(C([H])([H])[H])(C([H])([H])[H])[N+]2(C([H])([H])[H])C([H])([H])[H])[C@]2([H])[C@@]1([H])C(=O)O[C@@]2([H])C([H])([H])[H]


 26 29  0  0  0  0  0  0  0  0999 V2000
   54.1623   -0.7931   -8.3576 C   0  0  0  0  0  0  0  0  0  0  0  0
   53.6546   -2.2615   -8.4186 C   0  0  0  0  0  0  0  0  0  0  0  0
   54.1287   -2.8253   -7.2220 O   0  0  0  0  0  0  0  0  0  0  0  0
   55.4918   -3.0074   -7.4454 C   0  0  0  0  0  0  0  0  0  0  0  0
   56.3046   -3.3831   -6.5712 O   0  0  0  0  0  0  0  0  0  0  0  0
   55.7876   -2.6844   -8.8614 C   0  0  0  0  0  0  0  0  0  0  0  0
   56.8731   -3.4007   -9.4726 C   0  0  0  0  0  0  0  0  0  0  0  0
   56.7688   -4.3651  -10.3220 C   0  0  0  0  0  0  0  0  0  0  0  0
   57.9447   -5.0516  -10.9080 C   0  0  0  0  0  0  0  0  0  0  0  0
   57.5611   -5.4663  -12.3223 C   0  0  0  0  0  0  0  0  0  0  0  0
   56.5663   -4.5319  -12.9326 C   0  0  0  0  0  0  0  0  0  0  0  0
   55.2834   -4.3727  -12.1929 C   0  0  0  0  0  0  0  0  0  0  0  0
   55.4603   -4.8274  -10.7461 C   0  0  0  0  0  0  0  0  0  0  0  0
   54.2974   -4.2683   -9.9288 C   0  0  0  0  0  0  0  0  0  0  0  0
   53.3346   -5.1305   -9.8171 C   0  0  0  0  0  0  0  0  0  0  0  0
   54.3818   -2.9397   -9.4700 C   0  0  0  0  0  0  0  0  0  0  0  0
   52.0933   -4.9407   -9.1133 C   0  0  0  0  0  0  0  0  0  0  0  0
   52.1070   -5.9685   -7.9330 C   0  0  0  0  0  0  0  0  0  0  0  0
   53.4325   -5.9047   -7.2261 C   0  0  0  0  0  0  0  0  0  0  0  0
   53.0571   -5.1176   -5.9698 C   0  0  0  0  0  0  0  0  0  0  0  0
   51.6971   -5.7333   -5.6777 C   0  0  0  0  0  0  0  0  0  0  0  0
   51.9478   -7.1350   -5.1685 C   0  0  0  0  0  0  0  0  0  0  0  0
   50.9260   -4.9758   -4.6461 C   0  0  0  0  0  0  0  0  0  0  0  0
   51.0805   -5.7190   -6.9870 N   0  0  0  0  0  0  0  0  0  0  0  0
   50.1744   -6.8806   -7.0102 C   0  0  0  0  0  0  0  0  0  0  0  0
   50.2666   -4.5654   -7.2116 C   0  0  0  0  0  0  0  0  0  0  0  0
  1  2  1  0  0  0
  2  3  1  0  0  0
  3  4  1  0  0  0
  4  5  2  0  0  0
  4  6  1  0  0  0
  6  7  1  0  0  0
  7  8  2  0  0  0
  8  9  1  0  0  0
  9 10  1  0  0  0
 10 11  1  0  0  0
 11 12  1  0  0  0
 12 13  1  0  0  0
 13 14  1  0  0  0
 14 15  2  0  0  0
 15 17  1  0  0  0
 17 18  1  0  0  0
 18 19  1  0  0  0
 19 20  1  0  0  0
 20 21  1  0  0  0
 21 22  1  0  0  0
 21 23  1  0  0  0
 21 24  1  0  0  0
 24 25  1  0  0  0
 24 26  1  0  0  0
 14 16  1  0  0  0
 16  2  1  0  0  0
 16  6  1  0  0  0
 13  8  1  0  0  0
 24 18  1  0  0  0
M  CHG 1  24   1
M  END
> <minimizedAffinity>
5.80026

> <CNNscore>
0.4988208115

> <CNNaffinity>
6.3008327484

> <CNN_VS>
3.1429865360

> <CNNaffinity_variance>
0.7088643312

$$$$
[H]C1=C2C([H])([H])C([H])([H])C([H])([H])C([H])([H])[C@]2([H])/C(=C(\[H])C([H])([H])C2([H])C([H])([H])C([H])([H])C(C([H])([H])[H])(C([H])([H])[H])[N+]2(C([H])([H])[H])C([H])([H])[H])[C@]2([H])[C@@]1([H])C(=O)O[C@@]2([H])C([H])([H])[H]


 26 29  0  0  0  0  0  0  0  0999 V2000
   60.0396   -6.4419   -7.9923 C   0  0  0  0  0  0  0  0  0  0  0  0
   61.1006   -7.1745   -7.1233 C   0  0  0  0  0  0  0  0  0  0  0  0
   62.2476   -6.3738   -7.2570 O   0  0  0  0  0  0  0  0  0  0  0  0
   62.7151   -6.6562   -8.5388 C   0  0  0  0  0  0  0  0  0  0  0  0
   63.6634   -6.0545   -9.0908 O   0  0  0  0  0  0  0  0  0  0  0  0
   61.9076   -7.7627   -9.1050 C   0  0  0  0  0  0  0  0  0  0  0  0
   62.5721   -8.6357  -10.0332 C   0  0  0  0  0  0  0  0  0  0  0  0
   62.9817   -9.8346   -9.7938 C   0  0  0  0  0  0  0  0  0  0  0  0
   63.6593  -10.6716  -10.8126 C   0  0  0  0  0  0  0  0  0  0  0  0
   63.2709  -12.1174  -10.5332 C   0  0  0  0  0  0  0  0  0  0  0  0
   61.9116  -12.2268   -9.9206 C   0  0  0  0  0  0  0  0  0  0  0  0
   61.7150  -11.4973   -8.6370 C   0  0  0  0  0  0  0  0  0  0  0  0
   62.7902  -10.4243   -8.4818 C   0  0  0  0  0  0  0  0  0  0  0  0
   62.3261   -9.4411   -7.4090 C   0  0  0  0  0  0  0  0  0  0  0  0
   62.8132   -9.7405   -6.2445 C   0  0  0  0  0  0  0  0  0  0  0  0
   61.4306   -8.4203   -7.7816 C   0  0  0  0  0  0  0  0  0  0  0  0
   62.5876   -9.0285   -5.0139 C   0  0  0  0  0  0  0  0  0  0  0  0
   63.4692   -9.7432   -3.9361 C   0  0  0  0  0  0  0  0  0  0  0  0
   64.8109  -10.0787   -4.5260 C   0  0  0  0  0  0  0  0  0  0  0  0
   65.6861   -8.9918   -3.9008 C   0  0  0  0  0  0  0  0  0  0  0  0
   65.0914   -8.9564   -2.5012 C   0  0  0  0  0  0  0  0  0  0  0  0
   65.5304  -10.2242   -1.8034 C   0  0  0  0  0  0  0  0  0  0  0  0
   65.5542   -7.7812   -1.7028 C   0  0  0  0  0  0  0  0  0  0  0  0
   63.6723   -8.9404   -2.7850 N   0  0  0  0  0  0  0  0  0  0  0  0
   63.0345   -9.6334   -1.6520 C   0  0  0  0  0  0  0  0  0  0  0  0
   63.1209   -7.6217   -2.8161 C   0  0  0  0  0  0  0  0  0  0  0  0
  1  2  1  0  0  0
  2  3  1  0  0  0
  3  4  1  0  0  0
  4  5  2  0  0  0
  4  6  1  0  0  0
  6  7  1  0  0  0
  7  8  2  0  0  0
  8  9  1  0  0  0
  9 10  1  0  0  0
 10 11  1  0  0  0
 11 12  1  0  0  0
 12 13  1  0  0  0
 13 14  1  0  0  0
 14 15  2  0  0  0
 15 17  1  0  0  0
 17 18  1  0  0  0
 18 19  1  0  0  0
 19 20  1  0  0  0
 20 21  1  0  0  0
 21 22  1  0  0  0
 21 23  1  0  0  0
 21 24  1  0  0  0
 24 25  1  0  0  0
 24 26  1  0  0  0
 14 16  1  0  0  0
 16  2  1  0  0  0
 16  6  1  0  0  0
 13  8  1  0  0  0
 24 18  1  0  0  0
M  CHG 1  24   1
M  END
> <minimizedAffinity>
-1.31834

> <CNNscore>
0.4865899682

> <CNNaffinity>
4.8545618057

> <CNN_VS>
2.3621811867

> <CNNaffinity_variance>
0.4106217027

$$$$
[H]C1=C2C([H])([H])C([H])([H])C([H])([H])C([H])([H])[C@]2([H])/C(=C(\[H])C([H])([H])C2([H])C([H])([H])C([H])([H])C(C([H])([H])[H])(C([H])([H])[H])[N+]2(C([H])([H])[H])C([H])([H])[H])[C@]2([H])[C@@]1([H])C(=O)O[C@@]2([H])C([H])([H])[H]


 26 29  0  0  0  0  0  0  0  0999 V2000
   54.6544   -1.1341   -8.3870 C   0  0  0  0  0  0  0  0  0  0  0  0
   54.1797   -2.6134   -8.3239 C   0  0  0  0  0  0  0  0  0  0  0  0
   54.1901   -2.9056   -6.9494 O   0  0  0  0  0  0  0  0  0  0  0  0
   55.5411   -3.0481   -6.6396 C   0  0  0  0  0  0  0  0  0  0  0  0
   55.9853   -3.1990   -5.4794 O   0  0  0  0  0  0  0  0  0  0  0  0
   56.3245   -2.9895   -7.8965 C   0  0  0  0  0  0  0  0  0  0  0  0
   57.5455   -3.7465   -7.9305 C   0  0  0  0  0  0  0  0  0  0  0  0
   57.7348   -4.8619   -8.5490 C   0  0  0  0  0  0  0  0  0  0  0  0
   59.0319   -5.5796   -8.5345 C   0  0  0  0  0  0  0  0  0  0  0  0
   59.1686   -6.2826   -9.8785 C   0  0  0  0  0  0  0  0  0  0  0  0
   58.4690   -5.5439  -10.9739 C   0  0  0  0  0  0  0  0  0  0  0  0
   57.0096   -5.3189  -10.7788 C   0  0  0  0  0  0  0  0  0  0  0  0
   56.6552   -5.4730   -9.3017 C   0  0  0  0  0  0  0  0  0  0  0  0
   55.2864   -4.8344   -9.0743 C   0  0  0  0  0  0  0  0  0  0  0  0
   54.3339   -5.7130   -9.1351 C   0  0  0  0  0  0  0  0  0  0  0  0
   55.2224   -3.4394   -8.8937 C   0  0  0  0  0  0  0  0  0  0  0  0
   52.9267   -5.4626   -8.9643 C   0  0  0  0  0  0  0  0  0  0  0  0
   52.4890   -6.3015   -7.7176 C   0  0  0  0  0  0  0  0  0  0  0  0
   53.6457   -6.4278   -6.7654 C   0  0  0  0  0  0  0  0  0  0  0  0
   53.2501   -5.4173   -5.6880 C   0  0  0  0  0  0  0  0  0  0  0  0
   51.7539   -5.6834   -5.6231 C   0  0  0  0  0  0  0  0  0  0  0  0
   51.5734   -7.0248   -4.9487 C   0  0  0  0  0  0  0  0  0  0  0  0
   51.0128   -4.6472   -4.8422 C   0  0  0  0  0  0  0  0  0  0  0  0
   51.3994   -5.7138   -7.0260 N   0  0  0  0  0  0  0  0  0  0  0  0
   50.2642   -6.6475   -7.1270 C   0  0  0  0  0  0  0  0  0  0  0  0
   50.9330   -4.4539   -7.5146 C   0  0  0  0  0  0  0  0  0  0  0  0
  1  2  1  0  0  0
  2  3  1  0  0  0
  3  4  1  0  0  0
  4  5  2  0  0  0
  4  6  1  0  0  0
  6  7  1  0  0  0
  7  8  2  0  0  0
  8  9  1  0  0  0
  9 10  1  0  0  0
 10 11  1  0  0  0
 11 12  1  0  0  0
 12 13  1  0  0  0
 13 14  1  0  0  0
 14 15  2  0  0  0
 15 17  1  0  0  0
 17 18  1  0  0  0
 18 19  1  0  0  0
 19 20  1  0  0  0
 20 21  1  0  0  0
 21 22  1  0  0  0
 21 23  1  0  0  0
 21 24  1  0  0  0
 24 25  1  0  0  0
 24 26  1  0  0  0
 14 16  1  0  0  0
 16  2  1  0  0  0
 16  6  1  0  0  0
 13  8  1  0  0  0
 24 18  1  0  0  0
M  CHG 1  24   1
M  END
> <minimizedAffinity>
6.86209

> <CNNscore>
0.4849821627

> <CNNaffinity>
6.1786875725

> <CNN_VS>
2.9965531826

> <CNNaffinity_variance>
0.6799299717

$$$$
[H]C1=C2C([H])([H])C([H])([H])C([H])([H])C([H])([H])[C@]2([H])/C(=C(\[H])C([H])([H])C2([H])C([H])([H])C([H])([H])C(C([H])([H])[H])(C([H])([H])[H])[N+]2(C([H])([H])[H])C([H])([H])[H])[C@]2([H])[C@@]1([H])C(=O)O[C@@]2([H])C([H])([H])[H]


 26 29  0  0  0  0  0  0  0  0999 V2000
   60.5812   -6.7926   -9.2630 C   0  0  0  0  0  0  0  0  0  0  0  0
   61.9344   -7.5575   -9.3016 C   0  0  0  0  0  0  0  0  0  0  0  0
   61.5770   -8.8782   -8.9811 O   0  0  0  0  0  0  0  0  0  0  0  0
   61.3319   -8.8436   -7.6099 C   0  0  0  0  0  0  0  0  0  0  0  0
   60.8712   -9.8038   -6.9527 O   0  0  0  0  0  0  0  0  0  0  0  0
   61.7057   -7.5050   -7.0949 C   0  0  0  0  0  0  0  0  0  0  0  0
   62.1760   -7.4448   -5.7384 C   0  0  0  0  0  0  0  0  0  0  0  0
   63.3990   -7.2889   -5.3610 C   0  0  0  0  0  0  0  0  0  0  0  0
   63.8001   -7.2355   -3.9348 C   0  0  0  0  0  0  0  0  0  0  0  0
   64.9930   -6.2935   -3.8412 C   0  0  0  0  0  0  0  0  0  0  0  0
   64.9524   -5.2278   -4.8888 C   0  0  0  0  0  0  0  0  0  0  0  0
   64.9187   -5.7029   -6.3001 C   0  0  0  0  0  0  0  0  0  0  0  0
   64.4569   -7.1575   -6.3455 C   0  0  0  0  0  0  0  0  0  0  0  0
   64.0299   -7.4739   -7.7775 C   0  0  0  0  0  0  0  0  0  0  0  0
   64.9926   -8.0219   -8.4525 C   0  0  0  0  0  0  0  0  0  0  0  0
   62.7348   -7.1013   -8.1856 C   0  0  0  0  0  0  0  0  0  0  0  0
   64.9385   -8.4516   -9.8253 C   0  0  0  0  0  0  0  0  0  0  0  0
   65.2796   -9.9791   -9.8113 C   0  0  0  0  0  0  0  0  0  0  0  0
   65.1461  -10.5112   -8.4114 C   0  0  0  0  0  0  0  0  0  0  0  0
   63.8095  -11.2483   -8.5042 C   0  0  0  0  0  0  0  0  0  0  0  0
   63.9480  -11.8580   -9.8910 C   0  0  0  0  0  0  0  0  0  0  0  0
   64.9697  -12.9677   -9.7848 C   0  0  0  0  0  0  0  0  0  0  0  0
   62.6666  -12.4294  -10.4050 C   0  0  0  0  0  0  0  0  0  0  0  0
   64.4288  -10.7308  -10.6610 N   0  0  0  0  0  0  0  0  0  0  0  0
   65.2721  -11.3078  -11.7225 C   0  0  0  0  0  0  0  0  0  0  0  0
   63.3822  -10.0134  -11.3196 C   0  0  0  0  0  0  0  0  0  0  0  0
  1  2  1  0  0  0
  2  3  1  0  0  0
  3  4  1  0  0  0
  4  5  2  0  0  0
  4  6  1  0  0  0
  6  7  1  0  0  0
  7  8  2  0  0  0
  8  9  1  0  0  0
  9 10  1  0  0  0
 10 11  1  0  0  0
 11 12  1  0  0  0
 12 13  1  0  0  0
 13 14  1  0  0  0
 14 15  2  0  0  0
 15 17  1  0  0  0
 17 18  1  0  0  0
 18 19  1  0  0  0
 19 20  1  0  0  0
 20 21  1  0  0  0
 21 22  1  0  0  0
 21 23  1  0  0  0
 21 24  1  0  0  0
 24 25  1  0  0  0
 24 26  1  0  0  0
 14 16  1  0  0  0
 16  2  1  0  0  0
 16  6  1  0  0  0
 13  8  1  0  0  0
 24 18  1  0  0  0
M  CHG 1  24   1
M  END
> <minimizedAffinity>
-2.68641

> <CNNscore>
0.4693666101

> <CNNaffinity>
4.4148540497

> <CNN_VS>
2.0721850395

> <CNNaffinity_variance>
0.0636184141

$$$$
[H]c1c([H])c([H])c(C([H])([H])N2C([H])([H])C([H])([H])C([H])(C([H])([H])C([H])([H])N([H])C(=O)c3c([H])c([H])c([H])c([N+](=O)[O-])c3[H])C([H])([H])C2([H])[H])c([H])c1[H]


 28 30  0  0  0  0  0  0  0  0999 V2000
   50.9190   -2.8883   -7.8443 C   0  0  0  0  0  0  0  0  0  0  0  0
   52.7134   -2.8242   -9.9925 O   0  0  0  0  0  0  0  0  0  0  0  0
   53.1082   -3.3517   -8.9229 C   0  0  0  0  0  0  0  0  0  0  0  0
   52.2503   -3.4143   -7.8153 N   0  0  0  0  0  0  0  0  0  0  0  0
   52.5606   -3.8524   -6.9215 H   0  0  0  0  0  0  0  0  0  0  0  0
   54.4705   -3.8691   -8.9305 C   0  0  0  0  0  0  0  0  0  0  0  0
   55.0442   -4.3532   -7.7787 C   0  0  0  0  0  0  0  0  0  0  0  0
   56.3543   -4.8505   -7.7869 C   0  0  0  0  0  0  0  0  0  0  0  0
   57.0792   -4.8576   -8.9546 C   0  0  0  0  0  0  0  0  0  0  0  0
   56.5346   -4.3779  -10.1361 C   0  0  0  0  0  0  0  0  0  0  0  0
   55.2325   -3.8962  -10.0737 C   0  0  0  0  0  0  0  0  0  0  0  0
   57.2547   -4.3712  -11.3534 N   0  0  0  0  0  0  0  0  0  0  0  0
   58.3178   -4.9949  -11.4270 O   0  0  0  0  0  0  0  0  0  0  0  0
   56.7882   -3.6890  -12.4332 O   0  0  0  0  0  0  0  0  0  0  0  0
   49.9793   -3.8290   -7.1492 C   0  0  0  0  0  0  0  0  0  0  0  0
   50.5785   -4.1092   -5.7788 C   0  0  0  0  0  0  0  0  0  0  0  0
   50.9549   -5.5605   -5.6344 C   0  0  0  0  0  0  0  0  0  0  0  0
   51.7045   -5.6797   -4.3030 C   0  0  0  0  0  0  0  0  0  0  0  0
   50.8707   -5.2884   -3.2261 N   0  0  0  0  0  0  0  0  0  0  0  0
   49.5907   -4.7741   -3.5716 C   0  0  0  0  0  0  0  0  0  0  0  0
   49.6159   -3.7467   -4.6730 C   0  0  0  0  0  0  0  0  0  0  0  0
   50.7194   -6.3625   -2.2824 C   0  0  0  0  0  0  0  0  0  0  0  0
   51.9209   -6.6830   -1.5107 C   0  0  0  0  0  0  0  0  0  0  0  0
   52.6923   -5.6108   -1.0834 C   0  0  0  0  0  0  0  0  0  0  0  0
   53.8421   -5.7769   -0.3406 C   0  0  0  0  0  0  0  0  0  0  0  0
   54.2085   -7.0627   -0.0302 C   0  0  0  0  0  0  0  0  0  0  0  0
   53.4518   -8.1279   -0.4488 C   0  0  0  0  0  0  0  0  0  0  0  0
   52.3123   -7.9525   -1.1856 C   0  0  0  0  0  0  0  0  0  0  0  0
  2  3  2  0  0  0
  3  4  1  0  0  0
  4  1  1  0  0  0
  1 15  1  0  0  0
 15 16  1  0  0  0
 16 17  1  0  0  0
 17 18  1  0  0  0
 18 19  1  0  0  0
 19 22  1  0  0  0
 22 23  1  0  0  0
 23 24  2  0  0  0
 24 25  1  0  0  0
 25 26  2  0  0  0
 26 27  1  0  0  0
 27 28  2  0  0  0
 19 20  1  0  0  0
 20 21  1  0  0  0
  3  6  1  0  0  0
  6  7  2  0  0  0
  7  8  1  0  0  0
  8  9  2  0  0  0
  9 10  1  0  0  0
 10 12  1  0  0  0
 12 13  2  0  0  0
 12 14  1  0  0  0
 10 11  2  0  0  0
 21 16  1  0  0  0
 11  6  1  0  0  0
 28 23  1  0  0  0
  4  5  1  0  0  0
M  CHG 1  12   1
M  CHG 1  14  -1
M  END
> <minimizedAffinity>
-9.27271

> <CNNscore>
0.3330614567

> <CNNaffinity>
6.3580198288

> <CNN_VS>
2.1176114082

> <CNNaffinity_variance>
0.0214280598

$$$$
[H]c1c([H])c([H])c(C([H])([H])N2C([H])([H])C([H])([H])C([H])(C([H])([H])C([H])([H])N([H])C(=O)c3c([H])c([H])c([H])c([N+](=O)[O-])c3[H])C([H])([H])C2([H])[H])c([H])c1[H]


 28 30  0  0  0  0  0  0  0  0999 V2000
   51.8157   -6.5673   -3.0212 C   0  0  0  0  0  0  0  0  0  0  0  0
   50.7745   -6.5868   -5.6202 O   0  0  0  0  0  0  0  0  0  0  0  0
   51.0720   -5.4721   -5.1231 C   0  0  0  0  0  0  0  0  0  0  0  0
   51.6005   -5.4029   -3.8259 N   0  0  0  0  0  0  0  0  0  0  0  0
   51.8565   -4.4864   -3.4000 H   0  0  0  0  0  0  0  0  0  0  0  0
   50.8323   -4.3105   -5.9699 C   0  0  0  0  0  0  0  0  0  0  0  0
   49.7273   -3.5158   -5.7755 C   0  0  0  0  0  0  0  0  0  0  0  0
   49.4975   -2.3991   -6.5903 C   0  0  0  0  0  0  0  0  0  0  0  0
   50.3814   -2.0889   -7.5961 C   0  0  0  0  0  0  0  0  0  0  0  0
   51.5069   -2.8665   -7.8225 C   0  0  0  0  0  0  0  0  0  0  0  0
   51.6881   -3.9620   -6.9868 C   0  0  0  0  0  0  0  0  0  0  0  0
   52.4346   -2.5740   -8.8493 N   0  0  0  0  0  0  0  0  0  0  0  0
   53.2968   -1.7122   -8.6535 O   0  0  0  0  0  0  0  0  0  0  0  0
   52.3838   -3.2297  -10.0394 O   0  0  0  0  0  0  0  0  0  0  0  0
   53.2589   -6.9736   -3.0804 C   0  0  0  0  0  0  0  0  0  0  0  0
   53.8901   -6.1739   -4.2109 C   0  0  0  0  0  0  0  0  0  0  0  0
   54.3833   -7.0784   -5.3097 C   0  0  0  0  0  0  0  0  0  0  0  0
   54.8246   -6.1615   -6.4555 C   0  0  0  0  0  0  0  0  0  0  0  0
   55.8698   -5.3037   -6.0316 N   0  0  0  0  0  0  0  0  0  0  0  0
   56.2234   -5.3693   -4.6558 C   0  0  0  0  0  0  0  0  0  0  0  0
   55.0472   -5.3396   -3.7150 C   0  0  0  0  0  0  0  0  0  0  0  0
   57.0437   -5.4926   -6.8400 C   0  0  0  0  0  0  0  0  0  0  0  0
   56.9232   -5.0331   -8.2243 C   0  0  0  0  0  0  0  0  0  0  0  0
   57.9526   -5.3800   -9.0886 C   0  0  0  0  0  0  0  0  0  0  0  0
   57.9545   -5.0179  -10.4191 C   0  0  0  0  0  0  0  0  0  0  0  0
   56.8842   -4.2878  -10.8724 C   0  0  0  0  0  0  0  0  0  0  0  0
   55.8627   -3.9407  -10.0246 C   0  0  0  0  0  0  0  0  0  0  0  0
   55.8702   -4.3050   -8.7058 C   0  0  0  0  0  0  0  0  0  0  0  0
  2  3  2  0  0  0
  3  4  1  0  0  0
  4  1  1  0  0  0
  1 15  1  0  0  0
 15 16  1  0  0  0
 16 17  1  0  0  0
 17 18  1  0  0  0
 18 19  1  0  0  0
 19 22  1  0  0  0
 22 23  1  0  0  0
 23 24  2  0  0  0
 24 25  1  0  0  0
 25 26  2  0  0  0
 26 27  1  0  0  0
 27 28  2  0  0  0
 19 20  1  0  0  0
 20 21  1  0  0  0
  3  6  1  0  0  0
  6  7  2  0  0  0
  7  8  1  0  0  0
  8  9  2  0  0  0
  9 10  1  0  0  0
 10 12  1  0  0  0
 12 13  2  0  0  0
 12 14  1  0  0  0
 10 11  2  0  0  0
 21 16  1  0  0  0
 11  6  1  0  0  0
 28 23  1  0  0  0
  4  5  1  0  0  0
M  CHG 1  12   1
M  CHG 1  14  -1
M  END
> <minimizedAffinity>
-9.41126

> <CNNscore>
0.3237930536

> <CNNaffinity>
6.4067230225

> <CNN_VS>
2.0744524002

> <CNNaffinity_variance>
0.0723445266

$$$$
[H]c1c([H])c([H])c(C([H])([H])N2C([H])([H])C([H])([H])C([H])(C([H])([H])C([H])([H])N([H])C(=O)c3c([H])c([H])c([H])c([N+](=O)[O-])c3[H])C([H])([H])C2([H])[H])c([H])c1[H]


 28 30  0  0  0  0  0  0  0  0999 V2000
   54.9874   -5.8965   -6.5493 C   0  0  0  0  0  0  0  0  0  0  0  0
   52.4377   -6.0108   -7.7004 O   0  0  0  0  0  0  0  0  0  0  0  0
   52.6087   -5.2091   -6.7485 C   0  0  0  0  0  0  0  0  0  0  0  0
   53.8663   -5.1077   -6.1361 N   0  0  0  0  0  0  0  0  0  0  0  0
   54.0263   -4.4444   -5.3478 H   0  0  0  0  0  0  0  0  0  0  0  0
   51.4429   -4.4293   -6.3527 C   0  0  0  0  0  0  0  0  0  0  0  0
   51.0477   -3.3355   -7.0862 C   0  0  0  0  0  0  0  0  0  0  0  0
   49.9267   -2.5862   -6.7049 C   0  0  0  0  0  0  0  0  0  0  0  0
   49.2099   -2.9422   -5.5875 C   0  0  0  0  0  0  0  0  0  0  0  0
   49.5776   -4.0389   -4.8228 C   0  0  0  0  0  0  0  0  0  0  0  0
   50.6963   -4.7477   -5.2440 C   0  0  0  0  0  0  0  0  0  0  0  0
   48.8612   -4.4304   -3.6678 N   0  0  0  0  0  0  0  0  0  0  0  0
   49.3940   -5.1979   -2.8607 O   0  0  0  0  0  0  0  0  0  0  0  0
   47.6013   -3.9712   -3.4424 O   0  0  0  0  0  0  0  0  0  0  0  0
   56.1381   -5.0044   -6.9117 C   0  0  0  0  0  0  0  0  0  0  0  0
   56.4089   -5.2235   -8.3931 C   0  0  0  0  0  0  0  0  0  0  0  0
   57.8468   -4.9320   -8.7337 C   0  0  0  0  0  0  0  0  0  0  0  0
   58.0379   -5.3590  -10.1931 C   0  0  0  0  0  0  0  0  0  0  0  0
   57.1809   -4.6179  -11.0443 N   0  0  0  0  0  0  0  0  0  0  0  0
   56.2643   -3.7367  -10.4075 C   0  0  0  0  0  0  0  0  0  0  0  0
   55.5223   -4.3508   -9.2492 C   0  0  0  0  0  0  0  0  0  0  0  0
   57.9405   -3.8944  -12.0275 C   0  0  0  0  0  0  0  0  0  0  0  0
   57.4323   -3.9904  -13.3966 C   0  0  0  0  0  0  0  0  0  0  0  0
   58.1361   -3.2989  -14.3732 C   0  0  0  0  0  0  0  0  0  0  0  0
   57.7675   -3.3158  -15.7018 C   0  0  0  0  0  0  0  0  0  0  0  0
   56.6591   -4.0532  -16.0363 C   0  0  0  0  0  0  0  0  0  0  0  0
   55.9579   -4.7394  -15.0771 C   0  0  0  0  0  0  0  0  0  0  0  0
   56.3319   -4.7163  -13.7612 C   0  0  0  0  0  0  0  0  0  0  0  0
  2  3  2  0  0  0
  3  4  1  0  0  0
  4  1  1  0  0  0
  1 15  1  0  0  0
 15 16  1  0  0  0
 16 17  1  0  0  0
 17 18  1  0  0  0
 18 19  1  0  0  0
 19 22  1  0  0  0
 22 23  1  0  0  0
 23 24  2  0  0  0
 24 25  1  0  0  0
 25 26  2  0  0  0
 26 27  1  0  0  0
 27 28  2  0  0  0
 19 20  1  0  0  0
 20 21  1  0  0  0
  3  6  1  0  0  0
  6  7  2  0  0  0
  7  8  1  0  0  0
  8  9  2  0  0  0
  9 10  1  0  0  0
 10 12  1  0  0  0
 12 13  2  0  0  0
 12 14  1  0  0  0
 10 11  2  0  0  0
 21 16  1  0  0  0
 11  6  1  0  0  0
 28 23  1  0  0  0
  4  5  1  0  0  0
M  CHG 1  12   1
M  CHG 1  14  -1
M  END
> <minimizedAffinity>
-9.62524

> <CNNscore>
0.2895843983

> <CNNaffinity>
5.9237794876

> <CNN_VS>
1.7154340744

> <CNNaffinity_variance>
0.2317647487

$$$$
[H]c1c([H])c([H])c(C([H])([H])N2C([H])([H])C([H])([H])C([H])(C([H])([H])C([H])([H])N([H])C(=O)c3c([H])c([H])c([H])c([N+](=O)[O-])c3[H])C([H])([H])C2([H])[H])c([H])c1[H]


 28 30  0  0  0  0  0  0  0  0999 V2000
   54.6386   -6.7357   -6.0560 C   0  0  0  0  0  0  0  0  0  0  0  0
   52.2921   -6.4691   -7.5600 O   0  0  0  0  0  0  0  0  0  0  0  0
   52.5128   -5.6079   -6.6723 C   0  0  0  0  0  0  0  0  0  0  0  0
   53.6744   -5.6902   -5.8909 N   0  0  0  0  0  0  0  0  0  0  0  0
   53.8749   -4.9815   -5.1530 H   0  0  0  0  0  0  0  0  0  0  0  0
   51.5057   -4.5643   -6.5302 C   0  0  0  0  0  0  0  0  0  0  0  0
   51.4512   -3.5154   -7.4175 C   0  0  0  0  0  0  0  0  0  0  0  0
   50.4825   -2.5122   -7.2801 C   0  0  0  0  0  0  0  0  0  0  0  0
   49.5742   -2.5707   -6.2502 C   0  0  0  0  0  0  0  0  0  0  0  0
   49.5976   -3.6128   -5.3358 C   0  0  0  0  0  0  0  0  0  0  0  0
   50.5778   -4.5813   -5.5169 C   0  0  0  0  0  0  0  0  0  0  0  0
   48.6773   -3.7011   -4.2654 N   0  0  0  0  0  0  0  0  0  0  0  0
   47.8119   -2.8291   -4.1425 O   0  0  0  0  0  0  0  0  0  0  0  0
   48.7387   -4.7305   -3.3791 O   0  0  0  0  0  0  0  0  0  0  0  0
   56.0112   -6.2255   -5.7292 C   0  0  0  0  0  0  0  0  0  0  0  0
   56.2037   -6.4221   -4.2325 C   0  0  0  0  0  0  0  0  0  0  0  0
   55.2369   -7.4402   -3.6872 C   0  0  0  0  0  0  0  0  0  0  0  0
   55.6448   -7.6830   -2.2300 C   0  0  0  0  0  0  0  0  0  0  0  0
   55.5543   -6.4830   -1.4818 N   0  0  0  0  0  0  0  0  0  0  0  0
   55.2264   -5.3064   -2.2102 C   0  0  0  0  0  0  0  0  0  0  0  0
   56.0181   -5.1264   -3.4792 C   0  0  0  0  0  0  0  0  0  0  0  0
   54.6433   -6.6368   -0.3802 C   0  0  0  0  0  0  0  0  0  0  0  0
   53.3175   -7.1424   -0.7386 C   0  0  0  0  0  0  0  0  0  0  0  0
   53.0494   -8.4678   -0.4245 C   0  0  0  0  0  0  0  0  0  0  0  0
   51.8358   -9.0619   -0.6998 C   0  0  0  0  0  0  0  0  0  0  0  0
   50.8805   -8.2857   -1.3073 C   0  0  0  0  0  0  0  0  0  0  0  0
   51.1375   -6.9750   -1.6211 C   0  0  0  0  0  0  0  0  0  0  0  0
   52.3451   -6.3947   -1.3437 C   0  0  0  0  0  0  0  0  0  0  0  0
  2  3  2  0  0  0
  3  4  1  0  0  0
  4  1  1  0  0  0
  1 15  1  0  0  0
 15 16  1  0  0  0
 16 17  1  0  0  0
 17 18  1  0  0  0
 18 19  1  0  0  0
 19 22  1  0  0  0
 22 23  1  0  0  0
 23 24  2  0  0  0
 24 25  1  0  0  0
 25 26  2  0  0  0
 26 27  1  0  0  0
 27 28  2  0  0  0
 19 20  1  0  0  0
 20 21  1  0  0  0
  3  6  1  0  0  0
  6  7  2  0  0  0
  7  8  1  0  0  0
  8  9  2  0  0  0
  9 10  1  0  0  0
 10 12  1  0  0  0
 12 13  2  0  0  0
 12 14  1  0  0  0
 10 11  2  0  0  0
 21 16  1  0  0  0
 11  6  1  0  0  0
 28 23  1  0  0  0
  4  5  1  0  0  0
M  CHG 1  12   1
M  CHG 1  14  -1
M  END
> <minimizedAffinity>
-8.79008

> <CNNscore>
0.2529677749

> <CNNaffinity>
5.7738838196

> <CNN_VS>
1.4606065750

> <CNNaffinity_variance>
0.5415878296

$$$$
[H]c1c([H])c([H])c(C([H])([H])N2C([H])([H])C([H])([H])C([H])(C([H])([H])C([H])([H])N([H])C(=O)c3c([H])c([H])c([H])c([N+](=O)[O-])c3[H])C([H])([H])C2([H])[H])c([H])c1[H]


 28 30  0  0  0  0  0  0  0  0999 V2000
   53.9596   -4.0446   -9.5651 C   0  0  0  0  0  0  0  0  0  0  0  0
   52.0613   -2.1037   -8.8808 O   0  0  0  0  0  0  0  0  0  0  0  0
   52.0839   -3.1584   -8.1987 C   0  0  0  0  0  0  0  0  0  0  0  0
   53.0161   -4.1634   -8.4948 N   0  0  0  0  0  0  0  0  0  0  0  0
   53.0512   -5.0429   -7.9361 H   0  0  0  0  0  0  0  0  0  0  0  0
   51.1043   -3.2448   -7.1232 C   0  0  0  0  0  0  0  0  0  0  0  0
   50.0545   -2.3595   -7.0567 C   0  0  0  0  0  0  0  0  0  0  0  0
   49.1131   -2.4432   -6.0221 C   0  0  0  0  0  0  0  0  0  0  0  0
   49.2340   -3.4178   -5.0604 C   0  0  0  0  0  0  0  0  0  0  0  0
   50.2790   -4.3285   -5.0942 C   0  0  0  0  0  0  0  0  0  0  0  0
   51.1847   -4.2020   -6.1406 C   0  0  0  0  0  0  0  0  0  0  0  0
   50.4311   -5.3421   -4.1195 N   0  0  0  0  0  0  0  0  0  0  0  0
   49.6702   -5.3610   -3.1473 O   0  0  0  0  0  0  0  0  0  0  0  0
   51.4005   -6.2873   -4.2452 O   0  0  0  0  0  0  0  0  0  0  0  0
   55.2652   -3.5205   -9.0437 C   0  0  0  0  0  0  0  0  0  0  0  0
   56.2934   -4.6216   -9.2588 C   0  0  0  0  0  0  0  0  0  0  0  0
   57.4404   -4.4935   -8.2911 C   0  0  0  0  0  0  0  0  0  0  0  0
   58.3046   -5.7448   -8.4809 C   0  0  0  0  0  0  0  0  0  0  0  0
   58.7982   -5.8117   -9.8075 N   0  0  0  0  0  0  0  0  0  0  0  0
   58.3317   -4.8142  -10.7072 C   0  0  0  0  0  0  0  0  0  0  0  0
   56.8418   -4.5948  -10.6657 C   0  0  0  0  0  0  0  0  0  0  0  0
   60.2357   -5.8334   -9.8159 C   0  0  0  0  0  0  0  0  0  0  0  0
   60.8408   -7.0251   -9.2196 C   0  0  0  0  0  0  0  0  0  0  0  0
   61.5468   -6.8417   -8.0384 C   0  0  0  0  0  0  0  0  0  0  0  0
   62.1553   -7.8839   -7.3714 C   0  0  0  0  0  0  0  0  0  0  0  0
   62.0392   -9.1353   -7.9233 C   0  0  0  0  0  0  0  0  0  0  0  0
   61.3434   -9.3251   -9.0905 C   0  0  0  0  0  0  0  0  0  0  0  0
   60.7431   -8.2842   -9.7448 C   0  0  0  0  0  0  0  0  0  0  0  0
  2  3  2  0  0  0
  3  4  1  0  0  0
  4  1  1  0  0  0
  1 15  1  0  0  0
 15 16  1  0  0  0
 16 17  1  0  0  0
 17 18  1  0  0  0
 18 19  1  0  0  0
 19 22  1  0  0  0
 22 23  1  0  0  0
 23 24  2  0  0  0
 24 25  1  0  0  0
 25 26  2  0  0  0
 26 27  1  0  0  0
 27 28  2  0  0  0
 19 20  1  0  0  0
 20 21  1  0  0  0
  3  6  1  0  0  0
  6  7  2  0  0  0
  7  8  1  0  0  0
  8  9  2  0  0  0
  9 10  1  0  0  0
 10 12  1  0  0  0
 12 13  2  0  0  0
 12 14  1  0  0  0
 10 11  2  0  0  0
 21 16  1  0  0  0
 11  6  1  0  0  0
 28 23  1  0  0  0
  4  5  1  0  0  0
M  CHG 1  12   1
M  CHG 1  14  -1
M  END
> <minimizedAffinity>
-8.84151

> <CNNscore>
0.2313862890

> <CNNaffinity>
5.9106860161

> <CNN_VS>
1.3676517010

> <CNNaffinity_variance>
0.1219976097

$$$$
[H]c1c([H])c([H])c(C([H])([H])N2C([H])([H])C([H])([H])C([H])(C([H])([H])C([H])([H])N([H])C(=O)c3c([H])c([H])c([H])c([N+](=O)[O-])c3[H])C([H])([H])C2([H])[H])c([H])c1[H]


 28 30  0  0  0  0  0  0  0  0999 V2000
   52.4719   -4.1807   -7.6517 C   0  0  0  0  0  0  0  0  0  0  0  0
   53.4363   -2.9737   -9.9866 O   0  0  0  0  0  0  0  0  0  0  0  0
   54.1550   -3.8527   -9.4490 C   0  0  0  0  0  0  0  0  0  0  0  0
   53.7203   -4.4929   -8.2794 N   0  0  0  0  0  0  0  0  0  0  0  0
   54.3024   -5.2275   -7.8228 H   0  0  0  0  0  0  0  0  0  0  0  0
   55.4204   -4.1375  -10.1133 C   0  0  0  0  0  0  0  0  0  0  0  0
   55.5919   -3.8555  -11.4480 C   0  0  0  0  0  0  0  0  0  0  0  0
   56.8090   -4.1298  -12.0860 C   0  0  0  0  0  0  0  0  0  0  0  0
   57.8464   -4.6865  -11.3767 C   0  0  0  0  0  0  0  0  0  0  0  0
   57.7113   -4.9846  -10.0294 C   0  0  0  0  0  0  0  0  0  0  0  0
   56.4846   -4.6931   -9.4448 C   0  0  0  0  0  0  0  0  0  0  0  0
   58.7595   -5.5580   -9.2724 N   0  0  0  0  0  0  0  0  0  0  0  0
   58.7933   -5.3699   -8.0526 O   0  0  0  0  0  0  0  0  0  0  0  0
   59.7211   -6.3082   -9.8736 O   0  0  0  0  0  0  0  0  0  0  0  0
   51.9069   -5.4051   -6.9937 C   0  0  0  0  0  0  0  0  0  0  0  0
   52.2219   -5.2863   -5.5097 C   0  0  0  0  0  0  0  0  0  0  0  0
   53.4754   -6.0426   -5.1557 C   0  0  0  0  0  0  0  0  0  0  0  0
   53.7851   -5.7012   -3.6942 C   0  0  0  0  0  0  0  0  0  0  0  0
   52.7214   -6.1098   -2.8519 N   0  0  0  0  0  0  0  0  0  0  0  0
   51.5681   -6.6338   -3.4981 C   0  0  0  0  0  0  0  0  0  0  0  0
   51.0859   -5.8089   -4.6628 C   0  0  0  0  0  0  0  0  0  0  0  0
   53.1850   -7.0441   -1.8622 C   0  0  0  0  0  0  0  0  0  0  0  0
   52.1683   -7.9685   -1.3586 C   0  0  0  0  0  0  0  0  0  0  0  0
   51.1275   -7.4130   -0.6270 C   0  0  0  0  0  0  0  0  0  0  0  0
   50.1018   -8.1732   -0.1061 C   0  0  0  0  0  0  0  0  0  0  0  0
   50.1426   -9.5254   -0.3378 C   0  0  0  0  0  0  0  0  0  0  0  0
   51.1678  -10.0825   -1.0597 C   0  0  0  0  0  0  0  0  0  0  0  0
   52.1811   -9.3194   -1.5726 C   0  0  0  0  0  0  0  0  0  0  0  0
  2  3  2  0  0  0
  3  4  1  0  0  0
  4  1  1  0  0  0
  1 15  1  0  0  0
 15 16  1  0  0  0
 16 17  1  0  0  0
 17 18  1  0  0  0
 18 19  1  0  0  0
 19 22  1  0  0  0
 22 23  1  0  0  0
 23 24  2  0  0  0
 24 25  1  0  0  0
 25 26  2  0  0  0
 26 27  1  0  0  0
 27 28  2  0  0  0
 19 20  1  0  0  0
 20 21  1  0  0  0
  3  6  1  0  0  0
  6  7  2  0  0  0
  7  8  1  0  0  0
  8  9  2  0  0  0
  9 10  1  0  0  0
 10 12  1  0  0  0
 12 13  2  0  0  0
 12 14  1  0  0  0
 10 11  2  0  0  0
 21 16  1  0  0  0
 11  6  1  0  0  0
 28 23  1  0  0  0
  4  5  1  0  0  0
M  CHG 1  12   1
M  CHG 1  14  -1
M  END
> <minimizedAffinity>
-8.43311

> <CNNscore>
0.2303247750

> <CNNaffinity>
5.9947962761

> <CNN_VS>
1.3807500601

> <CNNaffinity_variance>
0.1322791427

$$$$
[H]c1c([H])c([H])c(C([H])([H])N2C([H])([H])C([H])([H])C([H])(C([H])([H])C([H])([H])N([H])C(=O)c3c([H])c([H])c([H])c([N+](=O)[O-])c3[H])C([H])([H])C2([H])[H])c([H])c1[H]


 28 30  0  0  0  0  0  0  0  0999 V2000
   51.2817   -6.6381   -2.2568 C   0  0  0  0  0  0  0  0  0  0  0  0
   51.6546   -6.5272   -5.0294 O   0  0  0  0  0  0  0  0  0  0  0  0
   51.0949   -5.5459   -4.4800 C   0  0  0  0  0  0  0  0  0  0  0  0
   50.8852   -5.5460   -3.0933 N   0  0  0  0  0  0  0  0  0  0  0  0
   50.4261   -4.7379   -2.6210 H   0  0  0  0  0  0  0  0  0  0  0  0
   50.7001   -4.4576   -5.3652 C   0  0  0  0  0  0  0  0  0  0  0  0
   49.5706   -3.7173   -5.1073 C   0  0  0  0  0  0  0  0  0  0  0  0
   49.1916   -2.6710   -5.9591 C   0  0  0  0  0  0  0  0  0  0  0  0
   49.9520   -2.3762   -7.0655 C   0  0  0  0  0  0  0  0  0  0  0  0
   51.0977   -3.1003   -7.3582 C   0  0  0  0  0  0  0  0  0  0  0  0
   51.4290   -4.1269   -6.4820 C   0  0  0  0  0  0  0  0  0  0  0  0
   51.9006   -2.8217   -8.4888 N   0  0  0  0  0  0  0  0  0  0  0  0
   52.1164   -1.6462   -8.7986 O   0  0  0  0  0  0  0  0  0  0  0  0
   52.4316   -3.8307   -9.2297 O   0  0  0  0  0  0  0  0  0  0  0  0
   52.1722   -6.1446   -1.1546 C   0  0  0  0  0  0  0  0  0  0  0  0
   53.5848   -6.5897   -1.5041 C   0  0  0  0  0  0  0  0  0  0  0  0
   54.2762   -5.5752   -2.3768 C   0  0  0  0  0  0  0  0  0  0  0  0
   55.7305   -6.0406   -2.5073 C   0  0  0  0  0  0  0  0  0  0  0  0
   55.7907   -7.3197   -3.1143 N   0  0  0  0  0  0  0  0  0  0  0  0
   54.5458   -7.9554   -3.3752 C   0  0  0  0  0  0  0  0  0  0  0  0
   53.5814   -7.9203   -2.2184 C   0  0  0  0  0  0  0  0  0  0  0  0
   56.5708   -7.2748   -4.3212 C   0  0  0  0  0  0  0  0  0  0  0  0
   56.0317   -6.4148   -5.3756 C   0  0  0  0  0  0  0  0  0  0  0  0
   54.9489   -6.9085   -6.0906 C   0  0  0  0  0  0  0  0  0  0  0  0
   54.3427   -6.1934   -7.1018 C   0  0  0  0  0  0  0  0  0  0  0  0
   54.8541   -4.9518   -7.3862 C   0  0  0  0  0  0  0  0  0  0  0  0
   55.9241   -4.4566   -6.6844 C   0  0  0  0  0  0  0  0  0  0  0  0
   56.5186   -5.1741   -5.6825 C   0  0  0  0  0  0  0  0  0  0  0  0
  2  3  2  0  0  0
  3  4  1  0  0  0
  4  1  1  0  0  0
  1 15  1  0  0  0
 15 16  1  0  0  0
 16 17  1  0  0  0
 17 18  1  0  0  0
 18 19  1  0  0  0
 19 22  1  0  0  0
 22 23  1  0  0  0
 23 24  2  0  0  0
 24 25  1  0  0  0
 25 26  2  0  0  0
 26 27  1  0  0  0
 27 28  2  0  0  0
 19 20  1  0  0  0
 20 21  1  0  0  0
  3  6  1  0  0  0
  6  7  2  0  0  0
  7  8  1  0  0  0
  8  9  2  0  0  0
  9 10  1  0  0  0
 10 12  1  0  0  0
 12 13  2  0  0  0
 12 14  1  0  0  0
 10 11  2  0  0  0
 21 16  1  0  0  0
 11  6  1  0  0  0
 28 23  1  0  0  0
  4  5  1  0  0  0
M  CHG 1  12   1
M  CHG 1  14  -1
M  END
> <minimizedAffinity>
-8.23963

> <CNNscore>
0.2208235413

> <CNNaffinity>
6.1662096977

> <CNN_VS>
1.3616442680

> <CNNaffinity_variance>
0.0521445349

$$$$
[H]c1c([H])c([H])c(C([H])([H])N2C([H])([H])C([H])([H])C([H])(C([H])([H])C([H])([H])N([H])C(=O)c3c([H])c([H])c([H])c([N+](=O)[O-])c3[H])C([H])([H])C2([H])[H])c([H])c1[H]


 28 30  0  0  0  0  0  0  0  0999 V2000
   50.0653   -3.4250   -7.4742 C   0  0  0  0  0  0  0  0  0  0  0  0
   52.0667   -2.2596   -9.0473 O   0  0  0  0  0  0  0  0  0  0  0  0
   52.3571   -3.3120   -8.4257 C   0  0  0  0  0  0  0  0  0  0  0  0
   51.3924   -3.9406   -7.6251 N   0  0  0  0  0  0  0  0  0  0  0  0
   51.6155   -4.8168   -7.1059 H   0  0  0  0  0  0  0  0  0  0  0  0
   53.7187   -3.8015   -8.5992 C   0  0  0  0  0  0  0  0  0  0  0  0
   54.4260   -3.5190   -9.7439 C   0  0  0  0  0  0  0  0  0  0  0  0
   55.7352   -3.9902   -9.9100 C   0  0  0  0  0  0  0  0  0  0  0  0
   56.3248   -4.7431   -8.9227 C   0  0  0  0  0  0  0  0  0  0  0  0
   55.6433   -5.0484   -7.7544 C   0  0  0  0  0  0  0  0  0  0  0  0
   54.3484   -4.5571   -7.6397 C   0  0  0  0  0  0  0  0  0  0  0  0
   56.2221   -5.8209   -6.7207 N   0  0  0  0  0  0  0  0  0  0  0  0
   57.4394   -5.7508   -6.5265 O   0  0  0  0  0  0  0  0  0  0  0  0
   55.4538   -6.6327   -5.9462 O   0  0  0  0  0  0  0  0  0  0  0  0
   49.8346   -3.0074   -6.0516 C   0  0  0  0  0  0  0  0  0  0  0  0
   49.9498   -4.2662   -5.2043 C   0  0  0  0  0  0  0  0  0  0  0  0
   49.7591   -3.9590   -3.7422 C   0  0  0  0  0  0  0  0  0  0  0  0
   49.7147   -5.3106   -3.0212 C   0  0  0  0  0  0  0  0  0  0  0  0
   50.9290   -6.0158   -3.2114 N   0  0  0  0  0  0  0  0  0  0  0  0
   51.8769   -5.4187   -4.0873 C   0  0  0  0  0  0  0  0  0  0  0  0
   51.2930   -4.9317   -5.3878 C   0  0  0  0  0  0  0  0  0  0  0  0
   51.5543   -6.3035   -1.9491 C   0  0  0  0  0  0  0  0  0  0  0  0
   51.3124   -7.6506   -1.4306 C   0  0  0  0  0  0  0  0  0  0  0  0
   50.2284   -7.8053   -0.5773 C   0  0  0  0  0  0  0  0  0  0  0  0
   49.8870   -9.0237   -0.0291 C   0  0  0  0  0  0  0  0  0  0  0  0
   50.6691  -10.1020   -0.3600 C   0  0  0  0  0  0  0  0  0  0  0  0
   51.7424   -9.9576   -1.2026 C   0  0  0  0  0  0  0  0  0  0  0  0
   52.0728   -8.7441   -1.7414 C   0  0  0  0  0  0  0  0  0  0  0  0
  2  3  2  0  0  0
  3  4  1  0  0  0
  4  1  1  0  0  0
  1 15  1  0  0  0
 15 16  1  0  0  0
 16 17  1  0  0  0
 17 18  1  0  0  0
 18 19  1  0  0  0
 19 22  1  0  0  0
 22 23  1  0  0  0
 23 24  2  0  0  0
 24 25  1  0  0  0
 25 26  2  0  0  0
 26 27  1  0  0  0
 27 28  2  0  0  0
 19 20  1  0  0  0
 20 21  1  0  0  0
  3  6  1  0  0  0
  6  7  2  0  0  0
  7  8  1  0  0  0
  8  9  2  0  0  0
  9 10  1  0  0  0
 10 12  1  0  0  0
 12 13  2  0  0  0
 12 14  1  0  0  0
 10 11  2  0  0  0
 21 16  1  0  0  0
 11  6  1  0  0  0
 28 23  1  0  0  0
  4  5  1  0  0  0
M  CHG 1  12   1
M  CHG 1  14  -1
M  END
> <minimizedAffinity>
-8.65760

> <CNNscore>
0.2176059633

> <CNNaffinity>
6.2681584358

> <CNN_VS>
1.3639886379

> <CNNaffinity_variance>
0.0965864584

$$$$
[H]c1c([H])c([H])c(C([H])([H])N2C([H])([H])C([H])([H])C([H])(C([H])([H])C([H])([H])N([H])C(=O)c3c([H])c([H])c([H])c([N+](=O)[O-])c3[H])C([H])([H])C2([H])[H])c([H])c1[H]


 28 30  0  0  0  0  0  0  0  0999 V2000
   54.1878   -4.2994   -8.7438 C   0  0  0  0  0  0  0  0  0  0  0  0
   52.6832   -5.6291   -6.7926 O   0  0  0  0  0  0  0  0  0  0  0  0
   52.3099   -4.4773   -7.1274 C   0  0  0  0  0  0  0  0  0  0  0  0
   53.0241   -3.7659   -8.1024 N   0  0  0  0  0  0  0  0  0  0  0  0
   52.7255   -2.8108   -8.3949 H   0  0  0  0  0  0  0  0  0  0  0  0
   51.1262   -3.9666   -6.4478 C   0  0  0  0  0  0  0  0  0  0  0  0
   50.4486   -2.8767   -6.9412 C   0  0  0  0  0  0  0  0  0  0  0  0
   49.3106   -2.3862   -6.2871 C   0  0  0  0  0  0  0  0  0  0  0  0
   48.8613   -2.9957   -5.1400 C   0  0  0  0  0  0  0  0  0  0  0  0
   49.5180   -4.0970   -4.6123 C   0  0  0  0  0  0  0  0  0  0  0  0
   50.6407   -4.5434   -5.2991 C   0  0  0  0  0  0  0  0  0  0  0  0
   49.0810   -4.7456   -3.4338 N   0  0  0  0  0  0  0  0  0  0  0  0
   49.8646   -5.4811   -2.8259 O   0  0  0  0  0  0  0  0  0  0  0  0
   47.8154   -4.5660   -2.9702 O   0  0  0  0  0  0  0  0  0  0  0  0
   54.9546   -3.1986   -9.4158 C   0  0  0  0  0  0  0  0  0  0  0  0
   56.3978   -3.6709   -9.5145 C   0  0  0  0  0  0  0  0  0  0  0  0
   56.5948   -4.5790  -10.6999 C   0  0  0  0  0  0  0  0  0  0  0  0
   58.1022   -4.8370  -10.7979 C   0  0  0  0  0  0  0  0  0  0  0  0
   58.5759   -5.4697   -9.6218 N   0  0  0  0  0  0  0  0  0  0  0  0
   57.6331   -5.6389   -8.5708 C   0  0  0  0  0  0  0  0  0  0  0  0
   56.8224   -4.4063   -8.2657 C   0  0  0  0  0  0  0  0  0  0  0  0
   59.1823   -6.7357   -9.9331 C   0  0  0  0  0  0  0  0  0  0  0  0
   60.5338   -6.9222   -9.4036 C   0  0  0  0  0  0  0  0  0  0  0  0
   61.1001   -8.1790   -9.5675 C   0  0  0  0  0  0  0  0  0  0  0  0
   62.3700   -8.4814   -9.1231 C   0  0  0  0  0  0  0  0  0  0  0  0
   63.0719   -7.4799   -8.5000 C   0  0  0  0  0  0  0  0  0  0  0  0
   62.5194   -6.2350   -8.3339 C   0  0  0  0  0  0  0  0  0  0  0  0
   61.2584   -5.9449   -8.7786 C   0  0  0  0  0  0  0  0  0  0  0  0
  2  3  2  0  0  0
  3  4  1  0  0  0
  4  1  1  0  0  0
  1 15  1  0  0  0
 15 16  1  0  0  0
 16 17  1  0  0  0
 17 18  1  0  0  0
 18 19  1  0  0  0
 19 22  1  0  0  0
 22 23  1  0  0  0
 23 24  2  0  0  0
 24 25  1  0  0  0
 25 26  2  0  0  0
 26 27  1  0  0  0
 27 28  2  0  0  0
 19 20  1  0  0  0
 20 21  1  0  0  0
  3  6  1  0  0  0
  6  7  2  0  0  0
  7  8  1  0  0  0
  8  9  2  0  0  0
  9 10  1  0  0  0
 10 12  1  0  0  0
 12 13  2  0  0  0
 12 14  1  0  0  0
 10 11  2  0  0  0
 21 16  1  0  0  0
 11  6  1  0  0  0
 28 23  1  0  0  0
  4  5  1  0  0  0
M  CHG 1  12   1
M  CHG 1  14  -1
M  END
> <minimizedAffinity>
-8.22504

> <CNNscore>
0.2166752517

> <CNNaffinity>
5.8791031837

> <CNN_VS>
1.2738561630

> <CNNaffinity_variance>
0.1570584178

$$$$
[H]OC(=O)c1c([H])c([H])c(OC2([H])C([H])([H])SC2([H])[H])c([H])c1[H]


 15 16  0  0  0  0  0  0  0  0999 V2000
   49.9163   -3.5967   -5.5180 C   0  0  0  0  0  0  0  0  0  0  0  0
   49.9925   -2.6883   -6.5642 C   0  0  0  0  0  0  0  0  0  0  0  0
   50.9782   -2.8432   -7.5326 C   0  0  0  0  0  0  0  0  0  0  0  0
   51.8923   -3.8704   -7.4979 C   0  0  0  0  0  0  0  0  0  0  0  0
   51.8058   -4.7728   -6.4463 C   0  0  0  0  0  0  0  0  0  0  0  0
   50.8252   -4.6366   -5.4640 C   0  0  0  0  0  0  0  0  0  0  0  0
   48.0970   -2.4486   -4.5529 O   0  0  0  0  0  0  0  0  0  0  0  0
   48.8772   -3.4322   -4.4984 C   0  0  0  0  0  0  0  0  0  0  0  0
   48.7565   -4.3593   -3.4777 O   0  0  0  0  0  0  0  0  0  0  0  0
   49.1732   -4.1342   -2.5734 H   0  0  0  0  0  0  0  0  0  0  0  0
   52.8342   -4.0271   -8.4142 O   0  0  0  0  0  0  0  0  0  0  0  0
   54.1213   -4.3195   -8.5516 C   0  0  0  0  0  0  0  0  0  0  0  0
   54.8244   -3.9701   -9.8712 C   0  0  0  0  0  0  0  0  0  0  0  0
   56.3568   -4.4339   -9.0026 S   0  0  0  0  0  0  0  0  0  0  0  0
   55.2098   -3.5685   -7.8642 C   0  0  0  0  0  0  0  0  0  0  0  0
  7  8  2  0  0  0
  8  9  1  0  0  0
  8  1  1  0  0  0
  1  2  2  0  0  0
  2  3  1  0  0  0
  3  4  2  0  0  0
  4 11  1  0  0  0
 11 12  1  0  0  0
 12 13  1  0  0  0
 13 14  1  0  0  0
 14 15  1  0  0  0
  4  5  1  0  0  0
  5  6  2  0  0  0
  6  1  1  0  0  0
 15 12  1  0  0  0
  9 10  1  0  0  0
M  END
> <minimizedAffinity>
-7.21787

> <CNNscore>
0.7007565498

> <CNNaffinity>
4.8535757065

> <CNN_VS>
3.4011750221

> <CNNaffinity_variance>
0.2882241607

$$$$
[H]OC(=O)c1c([H])c([H])c(OC2([H])C([H])([H])SC2([H])[H])c([H])c1[H]


 15 16  0  0  0  0  0  0  0  0999 V2000
   57.2968   -5.0115   -8.9186 C   0  0  0  0  0  0  0  0  0  0  0  0
   56.4893   -4.4947   -9.9218 C   0  0  0  0  0  0  0  0  0  0  0  0
   55.2168   -4.0331   -9.6044 C   0  0  0  0  0  0  0  0  0  0  0  0
   54.7175   -4.0670   -8.3231 C   0  0  0  0  0  0  0  0  0  0  0  0
   55.5348   -4.5862   -7.3281 C   0  0  0  0  0  0  0  0  0  0  0  0
   56.8146   -5.0548   -7.6240 C   0  0  0  0  0  0  0  0  0  0  0  0
   58.9988   -5.5562  -10.4567 O   0  0  0  0  0  0  0  0  0  0  0  0
   58.6374   -5.4975   -9.2545 C   0  0  0  0  0  0  0  0  0  0  0  0
   59.5030   -5.8910   -8.2487 O   0  0  0  0  0  0  0  0  0  0  0  0
   59.5839   -6.8887   -8.0484 H   0  0  0  0  0  0  0  0  0  0  0  0
   53.5081   -3.6303   -8.0101 O   0  0  0  0  0  0  0  0  0  0  0  0
   52.2901   -4.0564   -7.7001 C   0  0  0  0  0  0  0  0  0  0  0  0
   52.0852   -4.8237   -6.3859 C   0  0  0  0  0  0  0  0  0  0  0  0
   50.3071   -4.6750   -6.7520 S   0  0  0  0  0  0  0  0  0  0  0  0
   51.1953   -3.1508   -7.2504 C   0  0  0  0  0  0  0  0  0  0  0  0
  7  8  2  0  0  0
  8  9  1  0  0  0
  8  1  1  0  0  0
  1  2  2  0  0  0
  2  3  1  0  0  0
  3  4  2  0  0  0
  4 11  1  0  0  0
 11 12  1  0  0  0
 12 13  1  0  0  0
 13 14  1  0  0  0
 14 15  1  0  0  0
  4  5  1  0  0  0
  5  6  2  0  0  0
  6  1  1  0  0  0
 15 12  1  0  0  0
  9 10  1  0  0  0
M  END
> <minimizedAffinity>
-6.46593

> <CNNscore>
0.5660090446

> <CNNaffinity>
4.3909664154

> <CNN_VS>
2.4853267670

> <CNNaffinity_variance>
0.1166984066

$$$$
[H]OC(=O)c1c([H])c([H])c(OC2([H])C([H])([H])SC2([H])[H])c([H])c1[H]


 15 16  0  0  0  0  0  0  0  0999 V2000
   55.3974   -4.1901   -9.2459 C   0  0  0  0  0  0  0  0  0  0  0  0
   55.3748   -4.8692   -8.0361 C   0  0  0  0  0  0  0  0  0  0  0  0
   54.1807   -4.9676   -7.3305 C   0  0  0  0  0  0  0  0  0  0  0  0
   53.0066   -4.4140   -7.7854 C   0  0  0  0  0  0  0  0  0  0  0  0
   53.0420   -3.7371   -8.9972 C   0  0  0  0  0  0  0  0  0  0  0  0
   54.2286   -3.6262   -9.7216 C   0  0  0  0  0  0  0  0  0  0  0  0
   57.6523   -4.7637   -9.6282 O   0  0  0  0  0  0  0  0  0  0  0  0
   56.6563   -4.0872   -9.9884 C   0  0  0  0  0  0  0  0  0  0  0  0
   56.7468   -3.2462  -11.0839 O   0  0  0  0  0  0  0  0  0  0  0  0
   57.1690   -2.3266  -10.9492 H   0  0  0  0  0  0  0  0  0  0  0  0
   51.8649   -4.5017   -7.1220 O   0  0  0  0  0  0  0  0  0  0  0  0
   50.9646   -3.7616   -6.4874 C   0  0  0  0  0  0  0  0  0  0  0  0
   49.6728   -3.3740   -7.2216 C   0  0  0  0  0  0  0  0  0  0  0  0
   49.1198   -2.7473   -5.6031 S   0  0  0  0  0  0  0  0  0  0  0  0
   50.0943   -4.2863   -5.3973 C   0  0  0  0  0  0  0  0  0  0  0  0
  7  8  2  0  0  0
  8  9  1  0  0  0
  8  1  1  0  0  0
  1  2  2  0  0  0
  2  3  1  0  0  0
  3  4  2  0  0  0
  4 11  1  0  0  0
 11 12  1  0  0  0
 12 13  1  0  0  0
 13 14  1  0  0  0
 14 15  1  0  0  0
  4  5  1  0  0  0
  5  6  2  0  0  0
  6  1  1  0  0  0
 15 12  1  0  0  0
  9 10  1  0  0  0
M  END
> <minimizedAffinity>
-6.37030

> <CNNscore>
0.5161783099

> <CNNaffinity>
4.3989510536

> <CNN_VS>
2.2706432343

> <CNNaffinity_variance>
0.1828580499

$$$$
[H]OC(=O)c1c([H])c([H])c(OC2([H])C([H])([H])SC2([H])[H])c([H])c1[H]


 15 16  0  0  0  0  0  0  0  0999 V2000
   58.1174   -5.2298   -9.2176 C   0  0  0  0  0  0  0  0  0  0  0  0
   57.4587   -5.2259   -7.9963 C   0  0  0  0  0  0  0  0  0  0  0  0
   56.1547   -4.7486   -7.9253 C   0  0  0  0  0  0  0  0  0  0  0  0
   55.4812   -4.2742   -9.0268 C   0  0  0  0  0  0  0  0  0  0  0  0
   56.1509   -4.2832  -10.2430 C   0  0  0  0  0  0  0  0  0  0  0  0
   57.4590   -4.7574  -10.3373 C   0  0  0  0  0  0  0  0  0  0  0  0
   60.1234   -5.9836   -8.2340 O   0  0  0  0  0  0  0  0  0  0  0  0
   59.4914   -5.7330   -9.2909 C   0  0  0  0  0  0  0  0  0  0  0  0
   60.0908   -5.9315  -10.5227 O   0  0  0  0  0  0  0  0  0  0  0  0
   60.7202   -5.2077  -10.8721 H   0  0  0  0  0  0  0  0  0  0  0  0
   54.2403   -3.8177   -8.9703 O   0  0  0  0  0  0  0  0  0  0  0  0
   53.2208   -3.6604   -8.1354 C   0  0  0  0  0  0  0  0  0  0  0  0
   52.0094   -2.8346   -8.5918 C   0  0  0  0  0  0  0  0  0  0  0  0
   51.2172   -3.4325   -7.0644 S   0  0  0  0  0  0  0  0  0  0  0  0
   52.2562   -4.7479   -7.8066 C   0  0  0  0  0  0  0  0  0  0  0  0
  7  8  2  0  0  0
  8  9  1  0  0  0
  8  1  1  0  0  0
  1  2  2  0  0  0
  2  3  1  0  0  0
  3  4  2  0  0  0
  4 11  1  0  0  0
 11 12  1  0  0  0
 12 13  1  0  0  0
 13 14  1  0  0  0
 14 15  1  0  0  0
  4  5  1  0  0  0
  5  6  2  0  0  0
  6  1  1  0  0  0
 15 12  1  0  0  0
  9 10  1  0  0  0
M  END
> <minimizedAffinity>
-6.12624

> <CNNscore>
0.4887974858

> <CNNaffinity>
4.0942864418

> <CNN_VS>
2.0012769699

> <CNNaffinity_variance>
0.1828287542

$$$$
[H]OC(=O)c1c([H])c([H])c(OC2([H])C([H])([H])SC2([H])[H])c([H])c1[H]


 15 16  0  0  0  0  0  0  0  0999 V2000
   51.4186   -7.9630   -1.6694 C   0  0  0  0  0  0  0  0  0  0  0  0
   51.4059   -6.6173   -1.3314 C   0  0  0  0  0  0  0  0  0  0  0  0
   51.5256   -5.6604   -2.3331 C   0  0  0  0  0  0  0  0  0  0  0  0
   51.6580   -5.9943   -3.6609 C   0  0  0  0  0  0  0  0  0  0  0  0
   51.6694   -7.3439   -3.9865 C   0  0  0  0  0  0  0  0  0  0  0  0
   51.5506   -8.3205   -2.9980 C   0  0  0  0  0  0  0  0  0  0  0  0
   52.3207   -9.4025   -0.0342 O   0  0  0  0  0  0  0  0  0  0  0  0
   51.2923   -8.9702   -0.6129 C   0  0  0  0  0  0  0  0  0  0  0  0
   50.0421   -9.4435   -0.2541 O   0  0  0  0  0  0  0  0  0  0  0  0
   49.7372  -10.3364   -0.6437 H   0  0  0  0  0  0  0  0  0  0  0  0
   51.7727   -5.0918   -4.6220 O   0  0  0  0  0  0  0  0  0  0  0  0
   51.0602   -4.2341   -5.3416 C   0  0  0  0  0  0  0  0  0  0  0  0
   50.9107   -4.4770   -6.8504 C   0  0  0  0  0  0  0  0  0  0  0  0
   49.6952   -3.1216   -6.7951 S   0  0  0  0  0  0  0  0  0  0  0  0
   49.5730   -4.1560   -5.2866 C   0  0  0  0  0  0  0  0  0  0  0  0
  7  8  2  0  0  0
  8  9  1  0  0  0
  8  1  1  0  0  0
  1  2  2  0  0  0
  2  3  1  0  0  0
  3  4  2  0  0  0
  4 11  1  0  0  0
 11 12  1  0  0  0
 12 13  1  0  0  0
 13 14  1  0  0  0
 14 15  1  0  0  0
  4  5  1  0  0  0
  5  6  2  0  0  0
  6  1  1  0  0  0
 15 12  1  0  0  0
  9 10  1  0  0  0
M  END
> <minimizedAffinity>
-1.81713

> <CNNscore>
0.4273822010

> <CNNaffinity>
4.0364871025

> <CNN_VS>
1.7251226902

> <CNNaffinity_variance>
0.5585044622

$$$$
[H]OC(=O)c1c([H])c([H])c(OC2([H])C([H])([H])SC2([H])[H])c([H])c1[H]


 15 16  0  0  0  0  0  0  0  0999 V2000
   49.9694   -4.4002   -4.6222 C   0  0  0  0  0  0  0  0  0  0  0  0
   50.4487   -4.0505   -5.8766 C   0  0  0  0  0  0  0  0  0  0  0  0
   51.5954   -4.6665   -6.3656 C   0  0  0  0  0  0  0  0  0  0  0  0
   52.2836   -5.6191   -5.6509 C   0  0  0  0  0  0  0  0  0  0  0  0
   51.7942   -5.9605   -4.3973 C   0  0  0  0  0  0  0  0  0  0  0  0
   50.6459   -5.3554   -3.8872 C   0  0  0  0  0  0  0  0  0  0  0  0
   48.4864   -2.5746   -4.4567 O   0  0  0  0  0  0  0  0  0  0  0  0
   48.7611   -3.7504   -4.1083 C   0  0  0  0  0  0  0  0  0  0  0  0
   47.9249   -4.4315   -3.2407 O   0  0  0  0  0  0  0  0  0  0  0  0
   48.0152   -4.2444   -2.2413 H   0  0  0  0  0  0  0  0  0  0  0  0
   53.3757   -6.2114   -6.1068 O   0  0  0  0  0  0  0  0  0  0  0  0
   54.6486   -6.4338   -5.8045 C   0  0  0  0  0  0  0  0  0  0  0  0
   55.3219   -5.5566   -4.7391 C   0  0  0  0  0  0  0  0  0  0  0  0
   56.7100   -6.7290   -4.8679 S   0  0  0  0  0  0  0  0  0  0  0  0
   55.1092   -7.6102   -5.0139 C   0  0  0  0  0  0  0  0  0  0  0  0
  7  8  2  0  0  0
  8  9  1  0  0  0
  8  1  1  0  0  0
  1  2  2  0  0  0
  2  3  1  0  0  0
  3  4  2  0  0  0
  4 11  1  0  0  0
 11 12  1  0  0  0
 12 13  1  0  0  0
 13 14  1  0  0  0
 14 15  1  0  0  0
  4  5  1  0  0  0
  5  6  2  0  0  0
  6  1  1  0  0  0
 15 12  1  0  0  0
  9 10  1  0  0  0
M  END
> <minimizedAffinity>
-6.13698

> <CNNscore>
0.4139084220

> <CNNaffinity>
4.2876181602

> <CNN_VS>
1.7746812105

> <CNNaffinity_variance>
0.1680864990

$$$$
[H]OC(=O)c1c([H])c([H])c(OC2([H])C([H])([H])SC2([H])[H])c([H])c1[H]


 15 16  0  0  0  0  0  0  0  0999 V2000
   56.4379   -4.2200  -10.0370 C   0  0  0  0  0  0  0  0  0  0  0  0
   55.0835   -3.9362  -10.1383 C   0  0  0  0  0  0  0  0  0  0  0  0
   54.2564   -4.1530   -9.0419 C   0  0  0  0  0  0  0  0  0  0  0  0
   54.7286   -4.6430   -7.8465 C   0  0  0  0  0  0  0  0  0  0  0  0
   56.0855   -4.9231   -7.7574 C   0  0  0  0  0  0  0  0  0  0  0  0
   56.9334   -4.7131   -8.8446 C   0  0  0  0  0  0  0  0  0  0  0  0
   58.0170   -4.9283  -11.6384 O   0  0  0  0  0  0  0  0  0  0  0  0
   57.3082   -3.9909  -11.1931 C   0  0  0  0  0  0  0  0  0  0  0  0
   57.3486   -2.7440  -11.7925 O   0  0  0  0  0  0  0  0  0  0  0  0
   58.1160   -2.1177  -11.5458 H   0  0  0  0  0  0  0  0  0  0  0  0
   53.9503   -4.8531   -6.7969 O   0  0  0  0  0  0  0  0  0  0  0  0
   52.7352   -5.2688   -6.4625 C   0  0  0  0  0  0  0  0  0  0  0  0
   51.5419   -4.3291   -6.6876 C   0  0  0  0  0  0  0  0  0  0  0  0
   50.5176   -5.7724   -6.2567 S   0  0  0  0  0  0  0  0  0  0  0  0
   51.9765   -6.2901   -7.2386 C   0  0  0  0  0  0  0  0  0  0  0  0
  7  8  2  0  0  0
  8  9  1  0  0  0
  8  1  1  0  0  0
  1  2  2  0  0  0
  2  3  1  0  0  0
  3  4  2  0  0  0
  4 11  1  0  0  0
 11 12  1  0  0  0
 12 13  1  0  0  0
 13 14  1  0  0  0
 14 15  1  0  0  0
  4  5  1  0  0  0
  5  6  2  0  0  0
  6  1  1  0  0  0
 15 12  1  0  0  0
  9 10  1  0  0  0
M  END
> <minimizedAffinity>
-6.57499

> <CNNscore>
0.3696469963

> <CNNaffinity>
4.2177629471

> <CNN_VS>
1.5590834618

> <CNNaffinity_variance>
0.2784979939

$$$$
[H]OC(=O)c1c([H])c([H])c(OC2([H])C([H])([H])SC2([H])[H])c([H])c1[H]


 15 16  0  0  0  0  0  0  0  0999 V2000
   50.5653   -9.0097   -0.7848 C   0  0  0  0  0  0  0  0  0  0  0  0
   50.7899   -7.7466   -1.3137 C   0  0  0  0  0  0  0  0  0  0  0  0
   52.0492   -7.1696   -1.1925 C   0  0  0  0  0  0  0  0  0  0  0  0
   53.0946   -7.8043   -0.5631 C   0  0  0  0  0  0  0  0  0  0  0  0
   52.8575   -9.0675   -0.0380 C   0  0  0  0  0  0  0  0  0  0  0  0
   51.6023   -9.6653   -0.1481 C   0  0  0  0  0  0  0  0  0  0  0  0
   48.3638   -9.4008   -0.0366 O   0  0  0  0  0  0  0  0  0  0  0  0
   49.2380   -9.6165   -0.9133 C   0  0  0  0  0  0  0  0  0  0  0  0
   48.9492  -10.4255   -1.9986 O   0  0  0  0  0  0  0  0  0  0  0  0
   49.0028  -11.4368   -1.8708 H   0  0  0  0  0  0  0  0  0  0  0  0
   54.2967   -7.2642   -0.4422 O   0  0  0  0  0  0  0  0  0  0  0  0
   55.3198   -6.8182   -1.1601 C   0  0  0  0  0  0  0  0  0  0  0  0
   55.6815   -7.5421   -2.4651 C   0  0  0  0  0  0  0  0  0  0  0  0
   56.8229   -6.1501   -2.7439 S   0  0  0  0  0  0  0  0  0  0  0  0
   55.2723   -5.5629   -1.9619 C   0  0  0  0  0  0  0  0  0  0  0  0
  7  8  2  0  0  0
  8  9  1  0  0  0
  8  1  1  0  0  0
  1  2  2  0  0  0
  2  3  1  0  0  0
  3  4  2  0  0  0
  4 11  1  0  0  0
 11 12  1  0  0  0
 12 13  1  0  0  0
 13 14  1  0  0  0
 14 15  1  0  0  0
  4  5  1  0  0  0
  5  6  2  0  0  0
  6  1  1  0  0  0
 15 12  1  0  0  0
  9 10  1  0  0  0
M  END
> <minimizedAffinity>
-2.15059

> <CNNscore>
0.3651458025

> <CNNaffinity>
3.5443758965

> <CNN_VS>
1.2942140102

> <CNNaffinity_variance>
0.3386838734

$$$$
[H]OC(=O)c1c([H])c([H])c(OC2([H])C([H])([H])SC2([H])[H])c([H])c1[H]


 15 16  0  0  0  0  0  0  0  0999 V2000
   57.3514   -4.2741  -11.2336 C   0  0  0  0  0  0  0  0  0  0  0  0
   57.9378   -4.8964  -10.1407 C   0  0  0  0  0  0  0  0  0  0  0  0
   57.1839   -5.1135   -8.9928 C   0  0  0  0  0  0  0  0  0  0  0  0
   55.8659   -4.7332   -8.8923 C   0  0  0  0  0  0  0  0  0  0  0  0
   55.2904   -4.1115   -9.9923 C   0  0  0  0  0  0  0  0  0  0  0  0
   56.0279   -3.8838  -11.1539 C   0  0  0  0  0  0  0  0  0  0  0  0
   59.3482   -4.4134  -12.4798 O   0  0  0  0  0  0  0  0  0  0  0  0
   58.1470   -4.0460  -12.4425 C   0  0  0  0  0  0  0  0  0  0  0  0
   57.5752   -3.4271  -13.5406 O   0  0  0  0  0  0  0  0  0  0  0  0
   57.7486   -2.4299  -13.6736 H   0  0  0  0  0  0  0  0  0  0  0  0
   55.1395   -4.9350   -7.8047 O   0  0  0  0  0  0  0  0  0  0  0  0
   53.9343   -5.3256   -7.4095 C   0  0  0  0  0  0  0  0  0  0  0  0
   53.6864   -5.5666   -5.9135 C   0  0  0  0  0  0  0  0  0  0  0  0
   51.9342   -5.7280   -6.3841 S   0  0  0  0  0  0  0  0  0  0  0  0
   52.7493   -4.4223   -7.3798 C   0  0  0  0  0  0  0  0  0  0  0  0
  7  8  2  0  0  0
  8  9  1  0  0  0
  8  1  1  0  0  0
  1  2  2  0  0  0
  2  3  1  0  0  0
  3  4  2  0  0  0
  4 11  1  0  0  0
 11 12  1  0  0  0
 12 13  1  0  0  0
 13 14  1  0  0  0
 14 15  1  0  0  0
  4  5  1  0  0  0
  5  6  2  0  0  0
  6  1  1  0  0  0
 15 12  1  0  0  0
  9 10  1  0  0  0
M  END
> <minimizedAffinity>
-6.15410

> <CNNscore>
0.3519181609

> <CNNaffinity>
3.9605369568

> <CNN_VS>
1.3937848806

> <CNNaffinity_variance>
0.3368362784

$$$$
[H]C([H])=C([H])C(=O)N([H])C([H])([H])C([H])([H])C([H])([H])C([H])([H])[C@@]([H])(C(=O)N1C([H])([H])C([H])([H])N(c2c([H])c([H])c([H])c(C([H])([H])[H])c2[H])C([H])([H])C1([H])[H])N([H])C(=O)C([H])([H])c1c([H])c([H])c([H])c([H])c1[H]


 37 39  0  0  0  0  0  0  0  0999 V2000
   52.7223   -4.0913   -7.3447 C   0  0  0  0  0  0  0  0  0  0  0  0
   52.6397   -5.2593   -6.4537 C   0  0  0  0  0  0  0  0  0  0  0  0
   51.5179   -5.8751   -6.3817 O   0  0  0  0  0  0  0  0  0  0  0  0
   53.7189   -5.7359   -5.6837 N   0  0  0  0  0  0  0  0  0  0  0  0
   55.0163   -5.1268   -5.7201 C   0  0  0  0  0  0  0  0  0  0  0  0
   56.0688   -6.2188   -5.5596 C   0  0  0  0  0  0  0  0  0  0  0  0
   55.8576   -6.8223   -4.2575 N   0  0  0  0  0  0  0  0  0  0  0  0
   54.5566   -6.7555   -3.6635 C   0  0  0  0  0  0  0  0  0  0  0  0
   53.5536   -6.8926   -4.8089 C   0  0  0  0  0  0  0  0  0  0  0  0
   56.9227   -7.4770   -3.5868 C   0  0  0  0  0  0  0  0  0  0  0  0
   56.6091   -8.2905   -2.5016 C   0  0  0  0  0  0  0  0  0  0  0  0
   57.6199   -8.9391   -1.8391 C   0  0  0  0  0  0  0  0  0  0  0  0
   58.9302   -8.8102   -2.2138 C   0  0  0  0  0  0  0  0  0  0  0  0
   59.2670   -8.0131   -3.2817 C   0  0  0  0  0  0  0  0  0  0  0  0
   60.6644   -7.8480   -3.7130 C   0  0  0  0  0  0  0  0  0  0  0  0
   58.2434   -7.3606   -3.9476 C   0  0  0  0  0  0  0  0  0  0  0  0
   53.4829   -4.4499   -8.5670 N   0  0  0  0  0  0  0  0  0  0  0  0
   54.4706   -3.5871   -9.0752 C   0  0  0  0  0  0  0  0  0  0  0  0
   54.7021   -2.5056   -8.4806 O   0  0  0  0  0  0  0  0  0  0  0  0
   53.2595   -5.3370   -9.0137 H   0  0  0  0  0  0  0  0  0  0  0  0
   55.2104   -3.9631  -10.2843 C   0  0  0  0  0  0  0  0  0  0  0  0
   56.5429   -4.5072  -10.0174 C   0  0  0  0  0  0  0  0  0  0  0  0
   57.4163   -4.6197  -11.0884 C   0  0  0  0  0  0  0  0  0  0  0  0
   58.6932   -5.1242  -10.9310 C   0  0  0  0  0  0  0  0  0  0  0  0
   59.1435   -5.5334   -9.7027 C   0  0  0  0  0  0  0  0  0  0  0  0
   58.2909   -5.4289   -8.6297 C   0  0  0  0  0  0  0  0  0  0  0  0
   57.0056   -4.9204   -8.7913 C   0  0  0  0  0  0  0  0  0  0  0  0
   51.3625   -3.6781   -7.8936 C   0  0  0  0  0  0  0  0  0  0  0  0
   50.7092   -2.5741   -7.1308 C   0  0  0  0  0  0  0  0  0  0  0  0
   49.2497   -2.8416   -6.7958 C   0  0  0  0  0  0  0  0  0  0  0  0
   49.0259   -2.9157   -5.3252 C   0  0  0  0  0  0  0  0  0  0  0  0
   49.4802   -4.6638   -3.6179 C   0  0  0  0  0  0  0  0  0  0  0  0
   48.2872   -4.5504   -3.1554 O   0  0  0  0  0  0  0  0  0  0  0  0
   49.9093   -3.8779   -4.7054 N   0  0  0  0  0  0  0  0  0  0  0  0
   50.8908   -3.9736   -5.0946 H   0  0  0  0  0  0  0  0  0  0  0  0
   51.4231   -5.2679   -2.3102 C   0  0  0  0  0  0  0  0  0  0  0  0
   50.3523   -5.6155   -2.9877 C   0  0  0  0  0  0  0  0  0  0  0  0
 36 37  2  0  0  0
 37 32  1  0  0  0
 32 33  2  0  0  0
 32 34  1  0  0  0
 34 31  1  0  0  0
 31 30  1  0  0  0
 30 29  1  0  0  0
 29 28  1  0  0  0
 28  1  1  0  0  0
  1 17  1  0  0  0
 17 18  1  0  0  0
 18 19  2  0  0  0
 18 21  1  0  0  0
 21 22  1  0  0  0
 22 23  2  0  0  0
 23 24  1  0  0  0
 24 25  2  0  0  0
 25 26  1  0  0  0
 26 27  2  0  0  0
  1  2  1  0  0  0
  2  3  2  0  0  0
  2  4  1  0  0  0
  4  5  1  0  0  0
  5  6  1  0  0  0
  6  7  1  0  0  0
  7 10  1  0  0  0
 10 11  2  0  0  0
 11 12  1  0  0  0
 12 13  2  0  0  0
 13 14  1  0  0  0
 14 15  1  0  0  0
 14 16  2  0  0  0
  7  8  1  0  0  0
  8  9  1  0  0  0
 27 22  1  0  0  0
  9  4  1  0  0  0
 16 10  1  0  0  0
 34 35  1  0  0  0
 17 20  1  0  0  0
M  END
> <minimizedAffinity>
-9.10771

> <CNNscore>
0.3124589622

> <CNNaffinity>
6.8559331894

> <CNN_VS>
2.1421978474

> <CNNaffinity_variance>
0.3905071020

$$$$
[H]C([H])=C([H])C(=O)N([H])C([H])([H])C([H])([H])C([H])([H])C([H])([H])[C@@]([H])(C(=O)N1C([H])([H])C([H])([H])N(c2c([H])c([H])c([H])c(C([H])([H])[H])c2[H])C([H])([H])C1([H])[H])N([H])C(=O)C([H])([H])c1c([H])c([H])c([H])c([H])c1[H]


 37 39  0  0  0  0  0  0  0  0999 V2000
   54.0233   -4.9072   -6.5503 C   0  0  0  0  0  0  0  0  0  0  0  0
   53.7602   -5.9248   -5.5207 C   0  0  0  0  0  0  0  0  0  0  0  0
   52.6047   -6.4796   -5.5135 O   0  0  0  0  0  0  0  0  0  0  0  0
   54.7025   -6.3218   -4.5517 N   0  0  0  0  0  0  0  0  0  0  0  0
   56.0269   -5.7749   -4.4992 C   0  0  0  0  0  0  0  0  0  0  0  0
   56.9855   -6.8700   -4.0433 C   0  0  0  0  0  0  0  0  0  0  0  0
   56.5749   -7.2634   -2.7088 N   0  0  0  0  0  0  0  0  0  0  0  0
   55.2145   -7.0589   -2.3118 C   0  0  0  0  0  0  0  0  0  0  0  0
   54.3603   -7.3275   -3.5507 C   0  0  0  0  0  0  0  0  0  0  0  0
   57.5058   -7.8506   -1.8135 C   0  0  0  0  0  0  0  0  0  0  0  0
   57.0359   -8.8057   -0.9165 C   0  0  0  0  0  0  0  0  0  0  0  0
   57.9164   -9.3926   -0.0438 C   0  0  0  0  0  0  0  0  0  0  0  0
   59.2459   -9.0667   -0.0287 C   0  0  0  0  0  0  0  0  0  0  0  0
   59.7356   -8.1269   -0.9038 C   0  0  0  0  0  0  0  0  0  0  0  0
   61.1580   -7.7488   -0.9162 C   0  0  0  0  0  0  0  0  0  0  0  0
   58.8433   -7.5373   -1.7831 C   0  0  0  0  0  0  0  0  0  0  0  0
   55.1034   -5.3784   -7.4518 N   0  0  0  0  0  0  0  0  0  0  0  0
   56.2310   -4.5751   -7.6997 C   0  0  0  0  0  0  0  0  0  0  0  0
   56.3136   -3.4504   -7.1475 O   0  0  0  0  0  0  0  0  0  0  0  0
   54.9913   -6.2970   -7.8760 H   0  0  0  0  0  0  0  0  0  0  0  0
   57.2866   -5.0622   -8.5937 C   0  0  0  0  0  0  0  0  0  0  0  0
   57.1087   -4.6641   -9.9911 C   0  0  0  0  0  0  0  0  0  0  0  0
   58.2164   -4.7287  -10.8225 C   0  0  0  0  0  0  0  0  0  0  0  0
   58.1428   -4.3705  -12.1552 C   0  0  0  0  0  0  0  0  0  0  0  0
   56.9646   -3.9364  -12.7050 C   0  0  0  0  0  0  0  0  0  0  0  0
   55.8562   -3.8664  -11.8952 C   0  0  0  0  0  0  0  0  0  0  0  0
   55.9334   -4.2276  -10.5535 C   0  0  0  0  0  0  0  0  0  0  0  0
   52.8444   -4.7146   -7.4959 C   0  0  0  0  0  0  0  0  0  0  0  0
   52.0678   -3.4636   -7.2520 C   0  0  0  0  0  0  0  0  0  0  0  0
   50.5951   -3.5765   -7.6157 C   0  0  0  0  0  0  0  0  0  0  0  0
   49.7262   -3.5703   -6.4062 C   0  0  0  0  0  0  0  0  0  0  0  0
   49.8044   -4.4041   -4.0661 C   0  0  0  0  0  0  0  0  0  0  0  0
   49.0114   -3.4681   -3.6850 O   0  0  0  0  0  0  0  0  0  0  0  0
   50.1957   -4.5124   -5.4150 N   0  0  0  0  0  0  0  0  0  0  0  0
   50.8442   -5.2877   -5.7348 H   0  0  0  0  0  0  0  0  0  0  0  0
   51.4105   -5.1773   -2.4313 C   0  0  0  0  0  0  0  0  0  0  0  0
   50.2726   -5.3280   -3.0709 C   0  0  0  0  0  0  0  0  0  0  0  0
 36 37  2  0  0  0
 37 32  1  0  0  0
 32 33  2  0  0  0
 32 34  1  0  0  0
 34 31  1  0  0  0
 31 30  1  0  0  0
 30 29  1  0  0  0
 29 28  1  0  0  0
 28  1  1  0  0  0
  1 17  1  0  0  0
 17 18  1  0  0  0
 18 19  2  0  0  0
 18 21  1  0  0  0
 21 22  1  0  0  0
 22 23  2  0  0  0
 23 24  1  0  0  0
 24 25  2  0  0  0
 25 26  1  0  0  0
 26 27  2  0  0  0
  1  2  1  0  0  0
  2  3  2  0  0  0
  2  4  1  0  0  0
  4  5  1  0  0  0
  5  6  1  0  0  0
  6  7  1  0  0  0
  7 10  1  0  0  0
 10 11  2  0  0  0
 11 12  1  0  0  0
 12 13  2  0  0  0
 13 14  1  0  0  0
 14 15  1  0  0  0
 14 16  2  0  0  0
  7  8  1  0  0  0
  8  9  1  0  0  0
 27 22  1  0  0  0
  9  4  1  0  0  0
 16 10  1  0  0  0
 34 35  1  0  0  0
 17 20  1  0  0  0
M  END
> <minimizedAffinity>
-8.07387

> <CNNscore>
0.3025721312

> <CNNaffinity>
6.7371644974

> <CNN_VS>
2.0384781361

> <CNNaffinity_variance>
0.1606338024

$$$$
[H]C([H])=C([H])C(=O)N([H])C([H])([H])C([H])([H])C([H])([H])C([H])([H])[C@@]([H])(C(=O)N1C([H])([H])C([H])([H])N(c2c([H])c([H])c([H])c(C([H])([H])[H])c2[H])C([H])([H])C1([H])[H])N([H])C(=O)C([H])([H])c1c([H])c([H])c([H])c([H])c1[H]


 37 39  0  0  0  0  0  0  0  0999 V2000
   55.4915   -3.9016   -9.5427 C   0  0  0  0  0  0  0  0  0  0  0  0
   54.0636   -3.5686   -9.6662 C   0  0  0  0  0  0  0  0  0  0  0  0
   53.6262   -3.2436  -10.8264 O   0  0  0  0  0  0  0  0  0  0  0  0
   53.1573   -3.5901   -8.5879 N   0  0  0  0  0  0  0  0  0  0  0  0
   53.5510   -3.9656   -7.2613 C   0  0  0  0  0  0  0  0  0  0  0  0
   52.3896   -4.7018   -6.6016 C   0  0  0  0  0  0  0  0  0  0  0  0
   51.2829   -3.7670   -6.5278 N   0  0  0  0  0  0  0  0  0  0  0  0
   51.2252   -2.6835   -7.4621 C   0  0  0  0  0  0  0  0  0  0  0  0
   51.7570   -3.2297   -8.7871 C   0  0  0  0  0  0  0  0  0  0  0  0
   50.2679   -3.9294   -5.5499 C   0  0  0  0  0  0  0  0  0  0  0  0
   50.4041   -4.9685   -4.6337 C   0  0  0  0  0  0  0  0  0  0  0  0
   49.4393   -5.1440   -3.6747 C   0  0  0  0  0  0  0  0  0  0  0  0
   48.3446   -4.3264   -3.5914 C   0  0  0  0  0  0  0  0  0  0  0  0
   48.1860   -3.2931   -4.4836 C   0  0  0  0  0  0  0  0  0  0  0  0
   47.0218   -2.3944   -4.4271 C   0  0  0  0  0  0  0  0  0  0  0  0
   49.1625   -3.1195   -5.4498 C   0  0  0  0  0  0  0  0  0  0  0  0
   55.6494   -5.1133   -8.7013 N   0  0  0  0  0  0  0  0  0  0  0  0
   56.4670   -5.0894   -7.5571 C   0  0  0  0  0  0  0  0  0  0  0  0
   57.0642   -4.0270   -7.2547 O   0  0  0  0  0  0  0  0  0  0  0  0
   55.1453   -5.9503   -8.9870 H   0  0  0  0  0  0  0  0  0  0  0  0
   56.6072   -6.2991   -6.7399 C   0  0  0  0  0  0  0  0  0  0  0  0
   56.5559   -6.0486   -5.2985 C   0  0  0  0  0  0  0  0  0  0  0  0
   55.7327   -5.0252   -4.8542 C   0  0  0  0  0  0  0  0  0  0  0  0
   55.6230   -4.7159   -3.5118 C   0  0  0  0  0  0  0  0  0  0  0  0
   56.3285   -5.4147   -2.5669 C   0  0  0  0  0  0  0  0  0  0  0  0
   57.1494   -6.4329   -2.9896 C   0  0  0  0  0  0  0  0  0  0  0  0
   57.2579   -6.7420   -4.3422 C   0  0  0  0  0  0  0  0  0  0  0  0
   56.1105   -4.3205  -10.8702 C   0  0  0  0  0  0  0  0  0  0  0  0
   57.3137   -3.5268  -11.2571 C   0  0  0  0  0  0  0  0  0  0  0  0
   58.2886   -4.2859  -12.1442 C   0  0  0  0  0  0  0  0  0  0  0  0
   58.5743   -3.5491  -13.4066 C   0  0  0  0  0  0  0  0  0  0  0  0
   60.8784   -3.3181  -14.3095 C   0  0  0  0  0  0  0  0  0  0  0  0
   60.6340   -4.1980  -15.2128 O   0  0  0  0  0  0  0  0  0  0  0  0
   59.8882   -2.9461  -13.3792 N   0  0  0  0  0  0  0  0  0  0  0  0
   60.0836   -2.2151  -12.6367 H   0  0  0  0  0  0  0  0  0  0  0  0
   62.4702   -1.6267  -13.6346 C   0  0  0  0  0  0  0  0  0  0  0  0
   62.1902   -2.7333  -14.2854 C   0  0  0  0  0  0  0  0  0  0  0  0
 36 37  2  0  0  0
 37 32  1  0  0  0
 32 33  2  0  0  0
 32 34  1  0  0  0
 34 31  1  0  0  0
 31 30  1  0  0  0
 30 29  1  0  0  0
 29 28  1  0  0  0
 28  1  1  0  0  0
  1 17  1  0  0  0
 17 18  1  0  0  0
 18 19  2  0  0  0
 18 21  1  0  0  0
 21 22  1  0  0  0
 22 23  2  0  0  0
 23 24  1  0  0  0
 24 25  2  0  0  0
 25 26  1  0  0  0
 26 27  2  0  0  0
  1  2  1  0  0  0
  2  3  2  0  0  0
  2  4  1  0  0  0
  4  5  1  0  0  0
  5  6  1  0  0  0
  6  7  1  0  0  0
  7 10  1  0  0  0
 10 11  2  0  0  0
 11 12  1  0  0  0
 12 13  2  0  0  0
 13 14  1  0  0  0
 14 15  1  0  0  0
 14 16  2  0  0  0
  7  8  1  0  0  0
  8  9  1  0  0  0
 27 22  1  0  0  0
  9  4  1  0  0  0
 16 10  1  0  0  0
 34 35  1  0  0  0
 17 20  1  0  0  0
M  END
> <minimizedAffinity>
-6.89192

> <CNNscore>
0.2797064185

> <CNNaffinity>
6.7948455811

> <CNN_VS>
1.9005619287

> <CNNaffinity_variance>
0.0713082403

$$$$
[H]C([H])=C([H])C(=O)N([H])C([H])([H])C([H])([H])C([H])([H])C([H])([H])[C@@]([H])(C(=O)N1C([H])([H])C([H])([H])N(c2c([H])c([H])c([H])c(C([H])([H])[H])c2[H])C([H])([H])C1([H])[H])N([H])C(=O)C([H])([H])c1c([H])c([H])c([H])c([H])c1[H]


 37 39  0  0  0  0  0  0  0  0999 V2000
   55.7432   -4.3432   -9.7615 C   0  0  0  0  0  0  0  0  0  0  0  0
   56.6199   -4.7991   -8.6713 C   0  0  0  0  0  0  0  0  0  0  0  0
   57.8862   -4.7306   -8.8574 O   0  0  0  0  0  0  0  0  0  0  0  0
   56.1472   -5.3001   -7.4424 N   0  0  0  0  0  0  0  0  0  0  0  0
   54.7493   -5.3893   -7.1362 C   0  0  0  0  0  0  0  0  0  0  0  0
   54.5609   -5.1139   -5.6481 C   0  0  0  0  0  0  0  0  0  0  0  0
   55.2770   -6.1520   -4.9313 N   0  0  0  0  0  0  0  0  0  0  0  0
   56.3719   -6.8124   -5.5756 C   0  0  0  0  0  0  0  0  0  0  0  0
   57.0811   -5.7495   -6.4147 C   0  0  0  0  0  0  0  0  0  0  0  0
   54.9033   -6.5013   -3.6080 C   0  0  0  0  0  0  0  0  0  0  0  0
   53.9147   -7.4671   -3.4419 C   0  0  0  0  0  0  0  0  0  0  0  0
   53.5390   -7.8267   -2.1727 C   0  0  0  0  0  0  0  0  0  0  0  0
   54.1081   -7.2633   -1.0625 C   0  0  0  0  0  0  0  0  0  0  0  0
   55.0862   -6.3074   -1.1986 C   0  0  0  0  0  0  0  0  0  0  0  0
   55.7199   -5.6776   -0.0290 C   0  0  0  0  0  0  0  0  0  0  0  0
   55.4626   -5.9478   -2.4816 C   0  0  0  0  0  0  0  0  0  0  0  0
   54.8540   -3.2633   -9.2672 N   0  0  0  0  0  0  0  0  0  0  0  0
   53.4566   -3.3790   -9.3778 C   0  0  0  0  0  0  0  0  0  0  0  0
   52.9683   -4.4104   -9.9019 O   0  0  0  0  0  0  0  0  0  0  0  0
   55.2966   -2.4469   -8.8502 H   0  0  0  0  0  0  0  0  0  0  0  0
   52.5975   -2.2992   -8.8813 C   0  0  0  0  0  0  0  0  0  0  0  0
   51.6224   -2.7324   -7.8791 C   0  0  0  0  0  0  0  0  0  0  0  0
   50.5095   -1.9301   -7.6780 C   0  0  0  0  0  0  0  0  0  0  0  0
   49.5384   -2.2588   -6.7514 C   0  0  0  0  0  0  0  0  0  0  0  0
   49.6421   -3.3967   -5.9942 C   0  0  0  0  0  0  0  0  0  0  0  0
   50.7389   -4.2039   -6.1806 C   0  0  0  0  0  0  0  0  0  0  0  0
   51.7153   -3.8703   -7.1144 C   0  0  0  0  0  0  0  0  0  0  0  0
   56.5149   -3.6663  -10.8872 C   0  0  0  0  0  0  0  0  0  0  0  0
   56.3497   -4.3225  -12.2175 C   0  0  0  0  0  0  0  0  0  0  0  0
   57.1171   -3.6372  -13.3378 C   0  0  0  0  0  0  0  0  0  0  0  0
   58.5898   -3.7629  -13.1549 C   0  0  0  0  0  0  0  0  0  0  0  0
   60.6591   -3.5899  -14.5208 C   0  0  0  0  0  0  0  0  0  0  0  0
   61.2831   -4.3664  -13.7098 O   0  0  0  0  0  0  0  0  0  0  0  0
   59.3088   -3.2538  -14.3014 N   0  0  0  0  0  0  0  0  0  0  0  0
   58.7881   -2.6191  -14.9722 H   0  0  0  0  0  0  0  0  0  0  0  0
   61.3765   -3.6622  -16.8295 C   0  0  0  0  0  0  0  0  0  0  0  0
   61.3863   -3.0819  -15.6506 C   0  0  0  0  0  0  0  0  0  0  0  0
 36 37  2  0  0  0
 37 32  1  0  0  0
 32 33  2  0  0  0
 32 34  1  0  0  0
 34 31  1  0  0  0
 31 30  1  0  0  0
 30 29  1  0  0  0
 29 28  1  0  0  0
 28  1  1  0  0  0
  1 17  1  0  0  0
 17 18  1  0  0  0
 18 19  2  0  0  0
 18 21  1  0  0  0
 21 22  1  0  0  0
 22 23  2  0  0  0
 23 24  1  0  0  0
 24 25  2  0  0  0
 25 26  1  0  0  0
 26 27  2  0  0  0
  1  2  1  0  0  0
  2  3  2  0  0  0
  2  4  1  0  0  0
  4  5  1  0  0  0
  5  6  1  0  0  0
  6  7  1  0  0  0
  7 10  1  0  0  0
 10 11  2  0  0  0
 11 12  1  0  0  0
 12 13  2  0  0  0
 13 14  1  0  0  0
 14 15  1  0  0  0
 14 16  2  0  0  0
  7  8  1  0  0  0
  8  9  1  0  0  0
 27 22  1  0  0  0
  9  4  1  0  0  0
 16 10  1  0  0  0
 34 35  1  0  0  0
 17 20  1  0  0  0
M  END
> <minimizedAffinity>
-8.11318

> <CNNscore>
0.2768337727

> <CNNaffinity>
6.6460952759

> <CNN_VS>
1.8398636580

> <CNNaffinity_variance>
0.0564757586

$$$$
[H]C([H])=C([H])C(=O)N([H])C([H])([H])C([H])([H])C([H])([H])C([H])([H])[C@@]([H])(C(=O)N1C([H])([H])C([H])([H])N(c2c([H])c([H])c([H])c(C([H])([H])[H])c2[H])C([H])([H])C1([H])[H])N([H])C(=O)C([H])([H])c1c([H])c([H])c([H])c([H])c1[H]


 37 39  0  0  0  0  0  0  0  0999 V2000
   57.5454   -5.2431  -10.1277 C   0  0  0  0  0  0  0  0  0  0  0  0
   57.1600   -4.8971   -8.7505 C   0  0  0  0  0  0  0  0  0  0  0  0
   58.0981   -4.7410   -7.8911 O   0  0  0  0  0  0  0  0  0  0  0  0
   55.8267   -4.7264   -8.3287 N   0  0  0  0  0  0  0  0  0  0  0  0
   54.7153   -4.8559   -9.2252 C   0  0  0  0  0  0  0  0  0  0  0  0
   53.6394   -3.8578   -8.8100 C   0  0  0  0  0  0  0  0  0  0  0  0
   53.2202   -4.2201   -7.4694 N   0  0  0  0  0  0  0  0  0  0  0  0
   54.1277   -4.9411   -6.6288 C   0  0  0  0  0  0  0  0  0  0  0  0
   55.5232   -4.3996   -6.9389 C   0  0  0  0  0  0  0  0  0  0  0  0
   51.9332   -3.8574   -6.9954 C   0  0  0  0  0  0  0  0  0  0  0  0
   51.2532   -2.8430   -7.6634 C   0  0  0  0  0  0  0  0  0  0  0  0
   50.0049   -2.4769   -7.2285 C   0  0  0  0  0  0  0  0  0  0  0  0
   49.4067   -3.0804   -6.1552 C   0  0  0  0  0  0  0  0  0  0  0  0
   50.0564   -4.0845   -5.4781 C   0  0  0  0  0  0  0  0  0  0  0  0
   49.4467   -4.7555   -4.3187 C   0  0  0  0  0  0  0  0  0  0  0  0
   51.3161   -4.4510   -5.9208 C   0  0  0  0  0  0  0  0  0  0  0  0
   57.1374   -4.1531  -11.0478 N   0  0  0  0  0  0  0  0  0  0  0  0
   56.9414   -4.4073  -12.4172 C   0  0  0  0  0  0  0  0  0  0  0  0
   57.1163   -5.5715  -12.8539 O   0  0  0  0  0  0  0  0  0  0  0  0
   57.0079   -3.2263  -10.6470 H   0  0  0  0  0  0  0  0  0  0  0  0
   56.5372   -3.3143  -13.3076 C   0  0  0  0  0  0  0  0  0  0  0  0
   56.9662   -3.4927  -14.6958 C   0  0  0  0  0  0  0  0  0  0  0  0
   58.2863   -3.1992  -15.0020 C   0  0  0  0  0  0  0  0  0  0  0  0
   58.7789   -3.3358  -16.2859 C   0  0  0  0  0  0  0  0  0  0  0  0
   57.9745   -3.7692  -17.3077 C   0  0  0  0  0  0  0  0  0  0  0  0
   56.6630   -4.0650  -17.0220 C   0  0  0  0  0  0  0  0  0  0  0  0
   56.1697   -3.9264  -15.7281 C   0  0  0  0  0  0  0  0  0  0  0  0
   59.0563   -5.3039  -10.3136 C   0  0  0  0  0  0  0  0  0  0  0  0
   59.6831   -6.5534   -9.7908 C   0  0  0  0  0  0  0  0  0  0  0  0
   61.1137   -6.3656   -9.3094 C   0  0  0  0  0  0  0  0  0  0  0  0
   61.4277   -7.2515   -8.1540 C   0  0  0  0  0  0  0  0  0  0  0  0
   61.3242   -9.6480   -7.5034 C   0  0  0  0  0  0  0  0  0  0  0  0
   61.5988   -9.3495   -6.2845 O   0  0  0  0  0  0  0  0  0  0  0  0
   61.2197   -8.6434   -8.4854 N   0  0  0  0  0  0  0  0  0  0  0  0
   60.9862   -8.8850   -9.4909 H   0  0  0  0  0  0  0  0  0  0  0  0
   60.9161  -11.9575   -6.9120 C   0  0  0  0  0  0  0  0  0  0  0  0
   61.1298  -11.0349   -7.8229 C   0  0  0  0  0  0  0  0  0  0  0  0
 36 37  2  0  0  0
 37 32  1  0  0  0
 32 33  2  0  0  0
 32 34  1  0  0  0
 34 31  1  0  0  0
 31 30  1  0  0  0
 30 29  1  0  0  0
 29 28  1  0  0  0
 28  1  1  0  0  0
  1 17  1  0  0  0
 17 18  1  0  0  0
 18 19  2  0  0  0
 18 21  1  0  0  0
 21 22  1  0  0  0
 22 23  2  0  0  0
 23 24  1  0  0  0
 24 25  2  0  0  0
 25 26  1  0  0  0
 26 27  2  0  0  0
  1  2  1  0  0  0
  2  3  2  0  0  0
  2  4  1  0  0  0
  4  5  1  0  0  0
  5  6  1  0  0  0
  6  7  1  0  0  0
  7 10  1  0  0  0
 10 11  2  0  0  0
 11 12  1  0  0  0
 12 13  2  0  0  0
 13 14  1  0  0  0
 14 15  1  0  0  0
 14 16  2  0  0  0
  7  8  1  0  0  0
  8  9  1  0  0  0
 27 22  1  0  0  0
  9  4  1  0  0  0
 16 10  1  0  0  0
 34 35  1  0  0  0
 17 20  1  0  0  0
M  END
> <minimizedAffinity>
-7.92140

> <CNNscore>
0.2345706075

> <CNNaffinity>
6.4064421654

> <CNN_VS>
1.5027630329

> <CNNaffinity_variance>
0.1437825263

$$$$
[H]C([H])=C([H])C(=O)N([H])C([H])([H])C([H])([H])C([H])([H])C([H])([H])[C@@]([H])(C(=O)N1C([H])([H])C([H])([H])N(c2c([H])c([H])c([H])c(C([H])([H])[H])c2[H])C([H])([H])C1([H])[H])N([H])C(=O)C([H])([H])c1c([H])c([H])c([H])c([H])c1[H]


 37 39  0  0  0  0  0  0  0  0999 V2000
   54.1206   -4.7399   -7.8142 C   0  0  0  0  0  0  0  0  0  0  0  0
   55.0996   -4.2520   -8.7983 C   0  0  0  0  0  0  0  0  0  0  0  0
   54.7582   -3.2618   -9.5372 O   0  0  0  0  0  0  0  0  0  0  0  0
   56.3829   -4.8074   -8.9695 N   0  0  0  0  0  0  0  0  0  0  0  0
   56.8599   -5.8989   -8.1714 C   0  0  0  0  0  0  0  0  0  0  0  0
   58.3567   -5.7149   -7.9443 C   0  0  0  0  0  0  0  0  0  0  0  0
   58.9914   -5.7595   -9.2480 N   0  0  0  0  0  0  0  0  0  0  0  0
   58.2247   -5.4125  -10.4063 C   0  0  0  0  0  0  0  0  0  0  0  0
   57.2927   -4.2780   -9.9807 C   0  0  0  0  0  0  0  0  0  0  0  0
   60.3546   -6.1328   -9.3720 C   0  0  0  0  0  0  0  0  0  0  0  0
   60.7125   -6.9535  -10.4380 C   0  0  0  0  0  0  0  0  0  0  0  0
   62.0248   -7.3245  -10.5837 C   0  0  0  0  0  0  0  0  0  0  0  0
   62.9950   -6.9113   -9.7108 C   0  0  0  0  0  0  0  0  0  0  0  0
   62.6684   -6.1007   -8.6500 C   0  0  0  0  0  0  0  0  0  0  0  0
   63.6830   -5.6378   -7.6895 C   0  0  0  0  0  0  0  0  0  0  0  0
   61.3425   -5.7284   -8.5070 C   0  0  0  0  0  0  0  0  0  0  0  0
   54.5970   -4.4326   -6.4432 N   0  0  0  0  0  0  0  0  0  0  0  0
   54.6106   -5.4279   -5.4495 C   0  0  0  0  0  0  0  0  0  0  0  0
   54.2133   -6.5839   -5.7369 O   0  0  0  0  0  0  0  0  0  0  0  0
   54.9091   -3.4813   -6.2585 H   0  0  0  0  0  0  0  0  0  0  0  0
   55.0868   -5.1011   -4.1014 C   0  0  0  0  0  0  0  0  0  0  0  0
   56.2348   -5.9002   -3.6696 C   0  0  0  0  0  0  0  0  0  0  0  0
   56.9692   -6.5500   -4.6499 C   0  0  0  0  0  0  0  0  0  0  0  0
   58.0672   -7.3279   -4.3351 C   0  0  0  0  0  0  0  0  0  0  0  0
   58.4711   -7.4849   -3.0347 C   0  0  0  0  0  0  0  0  0  0  0  0
   57.7547   -6.8475   -2.0499 C   0  0  0  0  0  0  0  0  0  0  0  0
   56.6494   -6.0649   -2.3699 C   0  0  0  0  0  0  0  0  0  0  0  0
   52.7932   -3.9964   -7.8928 C   0  0  0  0  0  0  0  0  0  0  0  0
   51.8350   -4.3470   -6.8036 C   0  0  0  0  0  0  0  0  0  0  0  0
   50.3929   -3.9757   -7.1139 C   0  0  0  0  0  0  0  0  0  0  0  0
   50.0326   -2.6447   -6.5509 C   0  0  0  0  0  0  0  0  0  0  0  0
   48.3662   -3.0036   -4.7421 C   0  0  0  0  0  0  0  0  0  0  0  0
   49.2952   -3.3606   -3.9299 O   0  0  0  0  0  0  0  0  0  0  0  0
   48.6707   -2.6289   -6.0654 N   0  0  0  0  0  0  0  0  0  0  0  0
   47.9078   -2.3268   -6.7367 H   0  0  0  0  0  0  0  0  0  0  0  0
   46.5437   -3.9274   -3.4479 C   0  0  0  0  0  0  0  0  0  0  0  0
   47.0160   -3.0016   -4.2519 C   0  0  0  0  0  0  0  0  0  0  0  0
 36 37  2  0  0  0
 37 32  1  0  0  0
 32 33  2  0  0  0
 32 34  1  0  0  0
 34 31  1  0  0  0
 31 30  1  0  0  0
 30 29  1  0  0  0
 29 28  1  0  0  0
 28  1  1  0  0  0
  1 17  1  0  0  0
 17 18  1  0  0  0
 18 19  2  0  0  0
 18 21  1  0  0  0
 21 22  1  0  0  0
 22 23  2  0  0  0
 23 24  1  0  0  0
 24 25  2  0  0  0
 25 26  1  0  0  0
 26 27  2  0  0  0
  1  2  1  0  0  0
  2  3  2  0  0  0
  2  4  1  0  0  0
  4  5  1  0  0  0
  5  6  1  0  0  0
  6  7  1  0  0  0
  7 10  1  0  0  0
 10 11  2  0  0  0
 11 12  1  0  0  0
 12 13  2  0  0  0
 13 14  1  0  0  0
 14 15  1  0  0  0
 14 16  2  0  0  0
  7  8  1  0  0  0
  8  9  1  0  0  0
 27 22  1  0  0  0
  9  4  1  0  0  0
 16 10  1  0  0  0
 34 35  1  0  0  0
 17 20  1  0  0  0
M  END
> <minimizedAffinity>
-5.37772

> <CNNscore>
0.2161269337

> <CNNaffinity>
6.6716680527

> <CNN_VS>
1.4419271946

> <CNNaffinity_variance>
0.2114917338

$$$$
[H]C([H])=C([H])C(=O)N([H])C([H])([H])C([H])([H])C([H])([H])C([H])([H])[C@@]([H])(C(=O)N1C([H])([H])C([H])([H])N(c2c([H])c([H])c([H])c(C([H])([H])[H])c2[H])C([H])([H])C1([H])[H])N([H])C(=O)C([H])([H])c1c([H])c([H])c([H])c([H])c1[H]


 37 39  0  0  0  0  0  0  0  0999 V2000
   55.9597   -4.0948   -7.0496 C   0  0  0  0  0  0  0  0  0  0  0  0
   56.8877   -4.7742   -7.9672 C   0  0  0  0  0  0  0  0  0  0  0  0
   57.6827   -5.6485   -7.4707 O   0  0  0  0  0  0  0  0  0  0  0  0
   56.9478   -4.5204   -9.3517 N   0  0  0  0  0  0  0  0  0  0  0  0
   56.0807   -3.5791   -9.9981 C   0  0  0  0  0  0  0  0  0  0  0  0
   55.7539   -4.1006  -11.3935 C   0  0  0  0  0  0  0  0  0  0  0  0
   57.0067   -4.1779  -12.1208 N   0  0  0  0  0  0  0  0  0  0  0  0
   58.2279   -4.3223  -11.3875 C   0  0  0  0  0  0  0  0  0  0  0  0
   57.9091   -5.2240  -10.1950 C   0  0  0  0  0  0  0  0  0  0  0  0
   57.0204   -4.1203  -13.5383 C   0  0  0  0  0  0  0  0  0  0  0  0
   56.0612   -4.8538  -14.2310 C   0  0  0  0  0  0  0  0  0  0  0  0
   56.0494   -4.8110  -15.6018 C   0  0  0  0  0  0  0  0  0  0  0  0
   56.9540   -4.0672  -16.3105 C   0  0  0  0  0  0  0  0  0  0  0  0
   57.9113   -3.3339  -15.6511 C   0  0  0  0  0  0  0  0  0  0  0  0
   58.9019   -2.5239  -16.3783 C   0  0  0  0  0  0  0  0  0  0  0  0
   57.9194   -3.3798  -14.2673 C   0  0  0  0  0  0  0  0  0  0  0  0
   54.6670   -4.8223   -7.0196 N   0  0  0  0  0  0  0  0  0  0  0  0
   53.5154   -4.2610   -7.6001 C   0  0  0  0  0  0  0  0  0  0  0  0
   53.5939   -3.1329   -8.1459 O   0  0  0  0  0  0  0  0  0  0  0  0
   54.6533   -5.7336   -6.5658 H   0  0  0  0  0  0  0  0  0  0  0  0
   52.2487   -4.9990   -7.5592 C   0  0  0  0  0  0  0  0  0  0  0  0
   51.1974   -4.3279   -6.7929 C   0  0  0  0  0  0  0  0  0  0  0  0
   50.6078   -3.2073   -7.3577 C   0  0  0  0  0  0  0  0  0  0  0  0
   49.6092   -2.5088   -6.7060 C   0  0  0  0  0  0  0  0  0  0  0  0
   49.1640   -2.9023   -5.4708 C   0  0  0  0  0  0  0  0  0  0  0  0
   49.7373   -4.0114   -4.8959 C   0  0  0  0  0  0  0  0  0  0  0  0
   50.7428   -4.7127   -5.5546 C   0  0  0  0  0  0  0  0  0  0  0  0
   56.4232   -4.1554   -5.5996 C   0  0  0  0  0  0  0  0  0  0  0  0
   55.5596   -4.9972   -4.7203 C   0  0  0  0  0  0  0  0  0  0  0  0
   56.3300   -5.7542   -3.6492 C   0  0  0  0  0  0  0  0  0  0  0  0
   55.8695   -5.3935   -2.2796 C   0  0  0  0  0  0  0  0  0  0  0  0
   53.4305   -5.8386   -2.1056 C   0  0  0  0  0  0  0  0  0  0  0  0
   53.6521   -7.0900   -1.9179 O   0  0  0  0  0  0  0  0  0  0  0  0
   54.4975   -4.9372   -2.2879 N   0  0  0  0  0  0  0  0  0  0  0  0
   54.3192   -3.9027   -2.4359 H   0  0  0  0  0  0  0  0  0  0  0  0
   51.0431   -6.2264   -2.1050 C   0  0  0  0  0  0  0  0  0  0  0  0
   52.0633   -5.3984   -2.1222 C   0  0  0  0  0  0  0  0  0  0  0  0
 36 37  2  0  0  0
 37 32  1  0  0  0
 32 33  2  0  0  0
 32 34  1  0  0  0
 34 31  1  0  0  0
 31 30  1  0  0  0
 30 29  1  0  0  0
 29 28  1  0  0  0
 28  1  1  0  0  0
  1 17  1  0  0  0
 17 18  1  0  0  0
 18 19  2  0  0  0
 18 21  1  0  0  0
 21 22  1  0  0  0
 22 23  2  0  0  0
 23 24  1  0  0  0
 24 25  2  0  0  0
 25 26  1  0  0  0
 26 27  2  0  0  0
  1  2  1  0  0  0
  2  3  2  0  0  0
  2  4  1  0  0  0
  4  5  1  0  0  0
  5  6  1  0  0  0
  6  7  1  0  0  0
  7 10  1  0  0  0
 10 11  2  0  0  0
 11 12  1  0  0  0
 12 13  2  0  0  0
 13 14  1  0  0  0
 14 15  1  0  0  0
 14 16  2  0  0  0
  7  8  1  0  0  0
  8  9  1  0  0  0
 27 22  1  0  0  0
  9  4  1  0  0  0
 16 10  1  0  0  0
 34 35  1  0  0  0
 17 20  1  0  0  0
M  END
> <minimizedAffinity>
-8.96062

> <CNNscore>
0.2084789276

> <CNNaffinity>
6.6568746567

> <CNN_VS>
1.3878180981

> <CNNaffinity_variance>
0.3287253380

$$$$
[H]C([H])=C([H])C(=O)N([H])C([H])([H])C([H])([H])C([H])([H])C([H])([H])[C@@]([H])(C(=O)N1C([H])([H])C([H])([H])N(c2c([H])c([H])c([H])c(C([H])([H])[H])c2[H])C([H])([H])C1([H])[H])N([H])C(=O)C([H])([H])c1c([H])c([H])c([H])c([H])c1[H]


 37 39  0  0  0  0  0  0  0  0999 V2000
   55.5363   -3.9658   -9.4582 C   0  0  0  0  0  0  0  0  0  0  0  0
   54.1102   -3.6340   -9.6026 C   0  0  0  0  0  0  0  0  0  0  0  0
   53.6863   -3.3245  -10.7720 O   0  0  0  0  0  0  0  0  0  0  0  0
   53.1915   -3.6406   -8.5345 N   0  0  0  0  0  0  0  0  0  0  0  0
   53.5697   -3.9984   -7.1986 C   0  0  0  0  0  0  0  0  0  0  0  0
   52.4005   -4.7251   -6.5424 C   0  0  0  0  0  0  0  0  0  0  0  0
   51.2935   -3.7889   -6.4940 N   0  0  0  0  0  0  0  0  0  0  0  0
   51.2471   -2.7181   -7.4433 C   0  0  0  0  0  0  0  0  0  0  0  0
   51.7938   -3.2824   -8.7546 C   0  0  0  0  0  0  0  0  0  0  0  0
   50.2672   -3.9377   -5.5257 C   0  0  0  0  0  0  0  0  0  0  0  0
   50.3868   -4.9713   -4.6009 C   0  0  0  0  0  0  0  0  0  0  0  0
   49.4109   -5.1336   -3.6509 C   0  0  0  0  0  0  0  0  0  0  0  0
   48.3209   -4.3081   -3.5848 C   0  0  0  0  0  0  0  0  0  0  0  0
   48.1786   -3.2801   -4.4858 C   0  0  0  0  0  0  0  0  0  0  0  0
   47.0199   -2.3733   -4.4477 C   0  0  0  0  0  0  0  0  0  0  0  0
   49.1663   -3.1198   -5.4428 C   0  0  0  0  0  0  0  0  0  0  0  0
   55.6912   -5.0963   -8.5098 N   0  0  0  0  0  0  0  0  0  0  0  0
   56.5375   -4.9830   -7.3922 C   0  0  0  0  0  0  0  0  0  0  0  0
   57.1630   -3.9103   -7.2054 O   0  0  0  0  0  0  0  0  0  0  0  0
   55.1635   -5.9451   -8.7035 H   0  0  0  0  0  0  0  0  0  0  0  0
   56.6741   -6.1133   -6.4678 C   0  0  0  0  0  0  0  0  0  0  0  0
   55.8341   -6.0059   -5.2737 C   0  0  0  0  0  0  0  0  0  0  0  0
   54.8459   -6.9622   -5.0964 C   0  0  0  0  0  0  0  0  0  0  0  0
   54.0045   -6.9387   -4.0003 C   0  0  0  0  0  0  0  0  0  0  0  0
   54.1186   -5.9632   -3.0442 C   0  0  0  0  0  0  0  0  0  0  0  0
   55.0931   -5.0071   -3.2039 C   0  0  0  0  0  0  0  0  0  0  0  0
   55.9388   -5.0332   -4.3088 C   0  0  0  0  0  0  0  0  0  0  0  0
   56.1426   -4.5102  -10.7455 C   0  0  0  0  0  0  0  0  0  0  0  0
   57.3886   -3.8094  -11.1742 C   0  0  0  0  0  0  0  0  0  0  0  0
   58.5904   -4.7306  -11.3184 C   0  0  0  0  0  0  0  0  0  0  0  0
   58.7035   -5.6734  -10.1711 C   0  0  0  0  0  0  0  0  0  0  0  0
   60.7539   -6.9768   -9.6469 C   0  0  0  0  0  0  0  0  0  0  0  0
   60.1945   -8.0587  -10.0552 O   0  0  0  0  0  0  0  0  0  0  0  0
   60.0627   -5.7499   -9.6837 N   0  0  0  0  0  0  0  0  0  0  0  0
   60.5232   -4.8536   -9.3544 H   0  0  0  0  0  0  0  0  0  0  0  0
   62.6205   -6.1913   -8.3244 C   0  0  0  0  0  0  0  0  0  0  0  0
   62.1006   -7.0666   -9.1553 C   0  0  0  0  0  0  0  0  0  0  0  0
 36 37  2  0  0  0
 37 32  1  0  0  0
 32 33  2  0  0  0
 32 34  1  0  0  0
 34 31  1  0  0  0
 31 30  1  0  0  0
 30 29  1  0  0  0
 29 28  1  0  0  0
 28  1  1  0  0  0
  1 17  1  0  0  0
 17 18  1  0  0  0
 18 19  2  0  0  0
 18 21  1  0  0  0
 21 22  1  0  0  0
 22 23  2  0  0  0
 23 24  1  0  0  0
 24 25  2  0  0  0
 25 26  1  0  0  0
 26 27  2  0  0  0
  1  2  1  0  0  0
  2  3  2  0  0  0
  2  4  1  0  0  0
  4  5  1  0  0  0
  5  6  1  0  0  0
  6  7  1  0  0  0
  7 10  1  0  0  0
 10 11  2  0  0  0
 11 12  1  0  0  0
 12 13  2  0  0  0
 13 14  1  0  0  0
 14 15  1  0  0  0
 14 16  2  0  0  0
  7  8  1  0  0  0
  8  9  1  0  0  0
 27 22  1  0  0  0
  9  4  1  0  0  0
 16 10  1  0  0  0
 34 35  1  0  0  0
 17 20  1  0  0  0
M  END
> <minimizedAffinity>
-7.26600

> <CNNscore>
0.1936937571

> <CNNaffinity>
7.0139341354

> <CNN_VS>
1.3585551977

> <CNNaffinity_variance>
0.0555903092

$$$$
[H]C([H])=C([H])C(=O)N([H])C([H])([H])C([H])([H])C([H])([H])C([H])([H])[C@@]([H])(C(=O)N1C([H])([H])C([H])([H])N(c2c([H])c([H])c([H])c(C([H])([H])[H])c2[H])C([H])([H])C1([H])[H])N([H])C(=O)C([H])([H])c1c([H])c([H])c([H])c([H])c1[H]


 37 39  0  0  0  0  0  0  0  0999 V2000
   62.2183   -7.1795  -10.3440 C   0  0  0  0  0  0  0  0  0  0  0  0
   63.2882   -7.6319   -9.4410 C   0  0  0  0  0  0  0  0  0  0  0  0
   64.3943   -6.9844   -9.4569 O   0  0  0  0  0  0  0  0  0  0  0  0
   63.1633   -8.7276   -8.5643 N   0  0  0  0  0  0  0  0  0  0  0  0
   61.9559   -9.4938   -8.4600 C   0  0  0  0  0  0  0  0  0  0  0  0
   61.7890   -9.9400   -7.0112 C   0  0  0  0  0  0  0  0  0  0  0  0
   62.9240  -10.7863   -6.6953 N   0  0  0  0  0  0  0  0  0  0  0  0
   64.1391  -10.6236   -7.4350 C   0  0  0  0  0  0  0  0  0  0  0  0
   64.2776   -9.1263   -7.7100 C   0  0  0  0  0  0  0  0  0  0  0  0
   62.8338  -11.7548   -5.6625 C   0  0  0  0  0  0  0  0  0  0  0  0
   64.0174  -12.2053   -5.0846 C   0  0  0  0  0  0  0  0  0  0  0  0
   63.9576  -13.1376   -4.0803 C   0  0  0  0  0  0  0  0  0  0  0  0
   62.7667  -13.6391   -3.6285 C   0  0  0  0  0  0  0  0  0  0  0  0
   61.5837  -13.2112   -4.1819 C   0  0  0  0  0  0  0  0  0  0  0  0
   60.2840  -13.7286   -3.7242 C   0  0  0  0  0  0  0  0  0  0  0  0
   61.6488  -12.2699   -5.1952 C   0  0  0  0  0  0  0  0  0  0  0  0
   61.3335   -6.2264   -9.6299 N   0  0  0  0  0  0  0  0  0  0  0  0
   59.9562   -6.4828   -9.5056 C   0  0  0  0  0  0  0  0  0  0  0  0
   59.4819   -7.5315  -10.0079 O   0  0  0  0  0  0  0  0  0  0  0  0
   61.7642   -5.3904   -9.2398 H   0  0  0  0  0  0  0  0  0  0  0  0
   59.1012   -5.5267   -8.7944 C   0  0  0  0  0  0  0  0  0  0  0  0
   57.9830   -5.0241   -9.5944 C   0  0  0  0  0  0  0  0  0  0  0  0
   58.2119   -4.7911  -10.9419 C   0  0  0  0  0  0  0  0  0  0  0  0
   57.2161   -4.3147  -11.7733 C   0  0  0  0  0  0  0  0  0  0  0  0
   55.9595   -4.0545  -11.2916 C   0  0  0  0  0  0  0  0  0  0  0  0
   55.7148   -4.2800   -9.9580 C   0  0  0  0  0  0  0  0  0  0  0  0
   56.7196   -4.7598   -9.1232 C   0  0  0  0  0  0  0  0  0  0  0  0
   62.7478   -6.3522  -11.5086 C   0  0  0  0  0  0  0  0  0  0  0  0
   63.2699   -7.1669  -12.6449 C   0  0  0  0  0  0  0  0  0  0  0  0
   63.0721   -6.5169  -14.0058 C   0  0  0  0  0  0  0  0  0  0  0  0
   62.6231   -5.1023  -13.8816 C   0  0  0  0  0  0  0  0  0  0  0  0
   60.9854   -3.6367  -15.0422 C   0  0  0  0  0  0  0  0  0  0  0  0
   60.6661   -3.0791  -13.9299 O   0  0  0  0  0  0  0  0  0  0  0  0
   61.9612   -4.6518  -15.0855 N   0  0  0  0  0  0  0  0  0  0  0  0
   62.2327   -5.1094  -16.0024 H   0  0  0  0  0  0  0  0  0  0  0  0
   59.2774   -2.3809  -16.2065 C   0  0  0  0  0  0  0  0  0  0  0  0
   60.3139   -3.1882  -16.2302 C   0  0  0  0  0  0  0  0  0  0  0  0
 36 37  2  0  0  0
 37 32  1  0  0  0
 32 33  2  0  0  0
 32 34  1  0  0  0
 34 31  1  0  0  0
 31 30  1  0  0  0
 30 29  1  0  0  0
 29 28  1  0  0  0
 28  1  1  0  0  0
  1 17  1  0  0  0
 17 18  1  0  0  0
 18 19  2  0  0  0
 18 21  1  0  0  0
 21 22  1  0  0  0
 22 23  2  0  0  0
 23 24  1  0  0  0
 24 25  2  0  0  0
 25 26  1  0  0  0
 26 27  2  0  0  0
  1  2  1  0  0  0
  2  3  2  0  0  0
  2  4  1  0  0  0
  4  5  1  0  0  0
  5  6  1  0  0  0
  6  7  1  0  0  0
  7 10  1  0  0  0
 10 11  2  0  0  0
 11 12  1  0  0  0
 12 13  2  0  0  0
 13 14  1  0  0  0
 14 15  1  0  0  0
 14 16  2  0  0  0
  7  8  1  0  0  0
  8  9  1  0  0  0
 27 22  1  0  0  0
  9  4  1  0  0  0
 16 10  1  0  0  0
 34 35  1  0  0  0
 17 20  1  0  0  0
M  END
> <minimizedAffinity>
-5.09931

> <CNNscore>
0.1889638603

> <CNNaffinity>
4.9215850830

> <CNN_VS>
0.9300017357

> <CNNaffinity_variance>
0.0994699970

$$$$
[H]c1nc([H])c(N([H])c2c([H])c(-c3c([H])c([H])c4c([H])c(C#N)c([H])nn34)nc([H])c2C(=O)N([H])[C@]2([H])C([H])([H])C([H])([H])[C@@]([H])(N([H])C(=O)C3([H])C([H])([H])C3([H])[H])C([H])([H])C2([H])[H])c([H])c1[H]


 42 47  0  0  0  0  0  0  0  0999 V2000
   57.5884   -4.1991  -10.9263 C   0  0  0  0  0  0  0  0  0  0  0  0
   56.4325   -3.6869  -10.4175 C   0  0  0  0  0  0  0  0  0  0  0  0
   55.9149   -3.9134   -9.1453 C   0  0  0  0  0  0  0  0  0  0  0  0
   56.6687   -4.7521   -8.3179 C   0  0  0  0  0  0  0  0  0  0  0  0
   57.8597   -5.2882   -8.8295 C   0  0  0  0  0  0  0  0  0  0  0  0
   58.2783   -5.0136  -10.0676 N   0  0  0  0  0  0  0  0  0  0  0  0
   56.6219   -3.3512  -15.9705 C   0  0  0  0  0  0  0  0  0  0  0  0
   55.7488   -3.5375  -14.9303 C   0  0  0  0  0  0  0  0  0  0  0  0
   56.2424   -3.7371  -13.7068 N   0  0  0  0  0  0  0  0  0  0  0  0
   57.5354   -3.7669  -13.4271 N   0  0  0  0  0  0  0  0  0  0  0  0
   58.1318   -3.9586  -12.2564 C   0  0  0  0  0  0  0  0  0  0  0  0
   59.5070   -3.8976  -12.5180 C   0  0  0  0  0  0  0  0  0  0  0  0
   59.6861   -3.6674  -13.8591 C   0  0  0  0  0  0  0  0  0  0  0  0
   58.4146   -3.5865  -14.4253 C   0  0  0  0  0  0  0  0  0  0  0  0
   57.9750   -3.3760  -15.7110 C   0  0  0  0  0  0  0  0  0  0  0  0
   55.6857   -2.9663  -18.3538 N   0  0  0  0  0  0  0  0  0  0  0  0
   56.1068   -3.1417  -17.2884 C   0  0  0  0  0  0  0  0  0  0  0  0
   56.3063   -4.9986   -6.9469 C   0  0  0  0  0  0  0  0  0  0  0  0
   55.9614   -4.0179   -6.2003 O   0  0  0  0  0  0  0  0  0  0  0  0
   56.3022   -6.2758   -6.3554 N   0  0  0  0  0  0  0  0  0  0  0  0
   56.5644   -7.1039   -6.9202 H   0  0  0  0  0  0  0  0  0  0  0  0
   55.9200   -6.3895   -4.9561 C   0  0  0  0  0  0  0  0  0  0  0  0
   55.1957   -7.7324   -4.8193 C   0  0  0  0  0  0  0  0  0  0  0  0
   54.9532   -8.0085   -3.3399 C   0  0  0  0  0  0  0  0  0  0  0  0
   56.3297   -8.3805   -2.7691 C   0  0  0  0  0  0  0  0  0  0  0  0
   57.4279   -7.7221   -3.5296 C   0  0  0  0  0  0  0  0  0  0  0  0
   57.0323   -6.3063   -3.9814 C   0  0  0  0  0  0  0  0  0  0  0  0
   56.3397   -7.9378   -1.3825 N   0  0  0  0  0  0  0  0  0  0  0  0
   57.0968   -8.6507   -0.4300 C   0  0  0  0  0  0  0  0  0  0  0  0
   57.7608   -9.6793   -0.7845 O   0  0  0  0  0  0  0  0  0  0  0  0
   55.8008   -7.1050   -1.0903 H   0  0  0  0  0  0  0  0  0  0  0  0
   57.1316   -8.2217    0.9799 C   0  0  0  0  0  0  0  0  0  0  0  0
   56.7755   -6.8498    1.3469 C   0  0  0  0  0  0  0  0  0  0  0  0
   58.2298   -7.1692    1.2323 C   0  0  0  0  0  0  0  0  0  0  0  0
   54.6538   -3.4210   -8.8069 N   0  0  0  0  0  0  0  0  0  0  0  0
   54.4245   -2.4105   -8.9250 H   0  0  0  0  0  0  0  0  0  0  0  0
   53.6269   -4.2037   -8.2408 C   0  0  0  0  0  0  0  0  0  0  0  0
   53.6174   -5.6046   -8.2250 C   0  0  0  0  0  0  0  0  0  0  0  0
   52.5884   -6.3132   -7.6604 C   0  0  0  0  0  0  0  0  0  0  0  0
   51.5370   -5.6317   -7.0947 C   0  0  0  0  0  0  0  0  0  0  0  0
   51.5134   -4.2881   -7.0932 N   0  0  0  0  0  0  0  0  0  0  0  0
   52.5167   -3.6031   -7.6428 C   0  0  0  0  0  0  0  0  0  0  0  0
 16 17  3  0  0  0
 17  7  1  0  0  0
  7  8  1  0  0  0
  8  9  2  0  0  0
  9 10  1  0  0  0
 10 11  1  0  0  0
 11  1  1  0  0  0
  1  2  2  0  0  0
  2  3  1  0  0  0
  3 35  1  0  0  0
 35 37  1  0  0  0
 37 38  2  0  0  0
 38 39  1  0  0  0
 39 40  2  0  0  0
 40 41  1  0  0  0
 41 42  2  0  0  0
  3  4  2  0  0  0
  4 18  1  0  0  0
 18 19  2  0  0  0
 18 20  1  0  0  0
 20 22  1  0  0  0
 22 23  1  0  0  0
 23 24  1  0  0  0
 24 25  1  0  0  0
 25 28  1  0  0  0
 28 29  1  0  0  0
 29 30  2  0  0  0
 29 32  1  0  0  0
 32 33  1  0  0  0
 33 34  1  0  0  0
 25 26  1  0  0  0
 26 27  1  0  0  0
  4  5  1  0  0  0
  5  6  2  0  0  0
 11 12  2  0  0  0
 12 13  1  0  0  0
 13 14  2  0  0  0
 14 15  1  0  0  0
 15  7  2  0  0  0
 14 10  1  0  0  0
  6  1  1  0  0  0
 42 37  1  0  0  0
 27 22  1  0  0  0
 34 32  1  0  0  0
 35 36  1  0  0  0
 20 21  1  0  0  0
 28 31  1  0  0  0
M  END
> <minimizedAffinity>
-7.89174

> <CNNscore>
0.5897294283

> <CNNaffinity>
7.3952474594

> <CNN_VS>
4.3611950874

> <CNNaffinity_variance>
0.0698060989

$$$$
[H]c1nc([H])c(N([H])c2c([H])c(-c3c([H])c([H])c4c([H])c(C#N)c([H])nn34)nc([H])c2C(=O)N([H])[C@]2([H])C([H])([H])C([H])([H])[C@@]([H])(N([H])C(=O)C3([H])C([H])([H])C3([H])[H])C([H])([H])C2([H])[H])c([H])c1[H]


 42 47  0  0  0  0  0  0  0  0999 V2000
   62.3562  -14.3929   -5.6147 C   0  0  0  0  0  0  0  0  0  0  0  0
   62.8605  -13.2823   -6.2226 C   0  0  0  0  0  0  0  0  0  0  0  0
   63.2940  -13.1841   -7.5419 C   0  0  0  0  0  0  0  0  0  0  0  0
   63.1947  -14.3504   -8.3074 C   0  0  0  0  0  0  0  0  0  0  0  0
   62.6795  -15.5017   -7.6937 C   0  0  0  0  0  0  0  0  0  0  0  0
   62.2873  -15.5011   -6.4171 N   0  0  0  0  0  0  0  0  0  0  0  0
   62.7633  -12.6630   -0.7220 C   0  0  0  0  0  0  0  0  0  0  0  0
   63.4298  -12.2630   -1.8511 C   0  0  0  0  0  0  0  0  0  0  0  0
   63.1473  -12.8632   -3.0089 N   0  0  0  0  0  0  0  0  0  0  0  0
   62.2547  -13.8310   -3.1414 N   0  0  0  0  0  0  0  0  0  0  0  0
   61.8990  -14.4943   -4.2353 C   0  0  0  0  0  0  0  0  0  0  0  0
   60.9215  -15.4090   -3.8218 C   0  0  0  0  0  0  0  0  0  0  0  0
   60.7245  -15.2567   -2.4721 C   0  0  0  0  0  0  0  0  0  0  0  0
   61.5853  -14.2431   -2.0532 C   0  0  0  0  0  0  0  0  0  0  0  0
   61.8270  -13.6683   -0.8278 C   0  0  0  0  0  0  0  0  0  0  0  0
   63.2936  -11.5194    1.5399 N   0  0  0  0  0  0  0  0  0  0  0  0
   63.0602  -12.0321    0.5270 C   0  0  0  0  0  0  0  0  0  0  0  0
   63.5151  -14.3723   -9.7104 C   0  0  0  0  0  0  0  0  0  0  0  0
   63.3185  -15.4422  -10.3850 O   0  0  0  0  0  0  0  0  0  0  0  0
   64.0409  -13.2706  -10.4111 N   0  0  0  0  0  0  0  0  0  0  0  0
   64.2095  -12.3783   -9.9124 H   0  0  0  0  0  0  0  0  0  0  0  0
   64.3273  -13.4246  -11.8293 C   0  0  0  0  0  0  0  0  0  0  0  0
   64.9251  -14.8254  -11.9942 C   0  0  0  0  0  0  0  0  0  0  0  0
   65.0540  -15.1296  -13.4824 C   0  0  0  0  0  0  0  0  0  0  0  0
   63.6190  -15.3857  -13.9664 C   0  0  0  0  0  0  0  0  0  0  0  0
   62.6285  -14.6314  -13.1493 C   0  0  0  0  0  0  0  0  0  0  0  0
   63.1696  -13.2521  -12.7371 C   0  0  0  0  0  0  0  0  0  0  0  0
   63.5634  -14.9517  -15.3547 N   0  0  0  0  0  0  0  0  0  0  0  0
   62.3312  -14.9688  -16.0402 C   0  0  0  0  0  0  0  0  0  0  0  0
   61.2771  -15.3689  -15.4458 O   0  0  0  0  0  0  0  0  0  0  0  0
   64.4166  -14.6282  -15.8412 H   0  0  0  0  0  0  0  0  0  0  0  0
   62.2431  -14.5283  -17.4442 C   0  0  0  0  0  0  0  0  0  0  0  0
   61.5407  -13.2915  -17.7910 C   0  0  0  0  0  0  0  0  0  0  0  0
   60.7942  -14.5725  -17.9696 C   0  0  0  0  0  0  0  0  0  0  0  0
   63.9050  -12.0125   -7.9904 N   0  0  0  0  0  0  0  0  0  0  0  0
   64.9287  -11.8601   -7.8630 H   0  0  0  0  0  0  0  0  0  0  0  0
   63.2114  -10.9387   -8.5853 C   0  0  0  0  0  0  0  0  0  0  0  0
   61.8756  -10.6135   -8.3154 C   0  0  0  0  0  0  0  0  0  0  0  0
   61.2523   -9.5566   -8.9272 C   0  0  0  0  0  0  0  0  0  0  0  0
   61.9560   -8.7952   -9.8299 C   0  0  0  0  0  0  0  0  0  0  0  0
   63.2385   -9.0796  -10.1130 N   0  0  0  0  0  0  0  0  0  0  0  0
   63.8408  -10.1080   -9.5151 C   0  0  0  0  0  0  0  0  0  0  0  0
 16 17  3  0  0  0
 17  7  1  0  0  0
  7  8  1  0  0  0
  8  9  2  0  0  0
  9 10  1  0  0  0
 10 11  1  0  0  0
 11  1  1  0  0  0
  1  2  2  0  0  0
  2  3  1  0  0  0
  3 35  1  0  0  0
 35 37  1  0  0  0
 37 38  2  0  0  0
 38 39  1  0  0  0
 39 40  2  0  0  0
 40 41  1  0  0  0
 41 42  2  0  0  0
  3  4  2  0  0  0
  4 18  1  0  0  0
 18 19  2  0  0  0
 18 20  1  0  0  0
 20 22  1  0  0  0
 22 23  1  0  0  0
 23 24  1  0  0  0
 24 25  1  0  0  0
 25 28  1  0  0  0
 28 29  1  0  0  0
 29 30  2  0  0  0
 29 32  1  0  0  0
 32 33  1  0  0  0
 33 34  1  0  0  0
 25 26  1  0  0  0
 26 27  1  0  0  0
  4  5  1  0  0  0
  5  6  2  0  0  0
 11 12  2  0  0  0
 12 13  1  0  0  0
 13 14  2  0  0  0
 14 15  1  0  0  0
 15  7  2  0  0  0
 14 10  1  0  0  0
  6  1  1  0  0  0
 42 37  1  0  0  0
 27 22  1  0  0  0
 34 32  1  0  0  0
 35 36  1  0  0  0
 20 21  1  0  0  0
 28 31  1  0  0  0
M  END
> <minimizedAffinity>
-2.35328

> <CNNscore>
0.5299476981

> <CNNaffinity>
6.2133274078

> <CNN_VS>
3.2927386761

> <CNNaffinity_variance>
1.0069050789

$$$$
[H]c1nc([H])c(N([H])c2c([H])c(-c3c([H])c([H])c4c([H])c(C#N)c([H])nn34)nc([H])c2C(=O)N([H])[C@]2([H])C([H])([H])C([H])([H])[C@@]([H])(N([H])C(=O)C3([H])C([H])([H])C3([H])[H])C([H])([H])C2([H])[H])c([H])c1[H]


 42 47  0  0  0  0  0  0  0  0999 V2000
   57.3824   -4.3082  -10.6649 C   0  0  0  0  0  0  0  0  0  0  0  0
   56.0624   -4.4856  -10.3756 C   0  0  0  0  0  0  0  0  0  0  0  0
   55.5159   -4.7402   -9.1208 C   0  0  0  0  0  0  0  0  0  0  0  0
   56.4254   -4.8177   -8.0611 C   0  0  0  0  0  0  0  0  0  0  0  0
   57.7874   -4.6393   -8.3449 C   0  0  0  0  0  0  0  0  0  0  0  0
   58.2204   -4.3983   -9.5850 N   0  0  0  0  0  0  0  0  0  0  0  0
   56.5220   -3.3435  -15.7073 C   0  0  0  0  0  0  0  0  0  0  0  0
   55.6272   -3.5526  -14.6902 C   0  0  0  0  0  0  0  0  0  0  0  0
   56.0950   -3.7808  -13.4615 N   0  0  0  0  0  0  0  0  0  0  0  0
   57.3819   -3.8186  -13.1556 N   0  0  0  0  0  0  0  0  0  0  0  0
   57.9536   -4.0379  -11.9775 C   0  0  0  0  0  0  0  0  0  0  0  0
   59.3340   -3.9725  -12.2089 C   0  0  0  0  0  0  0  0  0  0  0  0
   59.5412   -3.7117  -13.5404 C   0  0  0  0  0  0  0  0  0  0  0  0
   58.2818   -3.6163  -14.1310 C   0  0  0  0  0  0  0  0  0  0  0  0
   57.8693   -3.3759  -15.4203 C   0  0  0  0  0  0  0  0  0  0  0  0
   55.6457   -2.9047  -18.1041 N   0  0  0  0  0  0  0  0  0  0  0  0
   56.0346   -3.1031  -17.0306 C   0  0  0  0  0  0  0  0  0  0  0  0
   55.9960   -4.9800   -6.6969 C   0  0  0  0  0  0  0  0  0  0  0  0
   55.7891   -3.9442   -5.9740 O   0  0  0  0  0  0  0  0  0  0  0  0
   55.7801   -6.2301   -6.0872 N   0  0  0  0  0  0  0  0  0  0  0  0
   55.9247   -7.0990   -6.6327 H   0  0  0  0  0  0  0  0  0  0  0  0
   55.3512   -6.2577   -4.6971 C   0  0  0  0  0  0  0  0  0  0  0  0
   53.8238   -6.3722   -4.7241 C   0  0  0  0  0  0  0  0  0  0  0  0
   53.3268   -6.6160   -3.3038 C   0  0  0  0  0  0  0  0  0  0  0  0
   53.7048   -8.0711   -2.9894 C   0  0  0  0  0  0  0  0  0  0  0  0
   54.9174   -8.4915   -3.7449 C   0  0  0  0  0  0  0  0  0  0  0  0
   55.9312   -7.3419   -3.8711 C   0  0  0  0  0  0  0  0  0  0  0  0
   53.9544   -8.1369   -1.5568 N   0  0  0  0  0  0  0  0  0  0  0  0
   53.0163   -8.7703   -0.7156 C   0  0  0  0  0  0  0  0  0  0  0  0
   51.9552   -9.2742   -1.2104 O   0  0  0  0  0  0  0  0  0  0  0  0
   54.8129   -7.7276   -1.1511 H   0  0  0  0  0  0  0  0  0  0  0  0
   53.2456   -8.8584    0.7378 C   0  0  0  0  0  0  0  0  0  0  0  0
   52.1183   -9.0170    1.6585 C   0  0  0  0  0  0  0  0  0  0  0  0
   52.6682   -7.6394    1.4847 C   0  0  0  0  0  0  0  0  0  0  0  0
   54.1554   -5.0250   -8.9968 N   0  0  0  0  0  0  0  0  0  0  0  0
   53.7793   -5.9627   -9.2550 H   0  0  0  0  0  0  0  0  0  0  0  0
   53.1879   -4.0880   -8.5800 C   0  0  0  0  0  0  0  0  0  0  0  0
   52.2582   -4.3131   -7.5564 C   0  0  0  0  0  0  0  0  0  0  0  0
   51.3380   -3.3631   -7.1953 C   0  0  0  0  0  0  0  0  0  0  0  0
   51.3262   -2.1571   -7.8550 C   0  0  0  0  0  0  0  0  0  0  0  0
   52.2030   -1.9081   -8.8424 N   0  0  0  0  0  0  0  0  0  0  0  0
   53.0967   -2.8347   -9.1897 C   0  0  0  0  0  0  0  0  0  0  0  0
 16 17  3  0  0  0
 17  7  1  0  0  0
  7  8  1  0  0  0
  8  9  2  0  0  0
  9 10  1  0  0  0
 10 11  1  0  0  0
 11  1  1  0  0  0
  1  2  2  0  0  0
  2  3  1  0  0  0
  3 35  1  0  0  0
 35 37  1  0  0  0
 37 38  2  0  0  0
 38 39  1  0  0  0
 39 40  2  0  0  0
 40 41  1  0  0  0
 41 42  2  0  0  0
  3  4  2  0  0  0
  4 18  1  0  0  0
 18 19  2  0  0  0
 18 20  1  0  0  0
 20 22  1  0  0  0
 22 23  1  0  0  0
 23 24  1  0  0  0
 24 25  1  0  0  0
 25 28  1  0  0  0
 28 29  1  0  0  0
 29 30  2  0  0  0
 29 32  1  0  0  0
 32 33  1  0  0  0
 33 34  1  0  0  0
 25 26  1  0  0  0
 26 27  1  0  0  0
  4  5  1  0  0  0
  5  6  2  0  0  0
 11 12  2  0  0  0
 12 13  1  0  0  0
 13 14  2  0  0  0
 14 15  1  0  0  0
 15  7  2  0  0  0
 14 10  1  0  0  0
  6  1  1  0  0  0
 42 37  1  0  0  0
 27 22  1  0  0  0
 34 32  1  0  0  0
 35 36  1  0  0  0
 20 21  1  0  0  0
 28 31  1  0  0  0
M  END
> <minimizedAffinity>
-7.61288

> <CNNscore>
0.4950143397

> <CNNaffinity>
7.3946623802

> <CNN_VS>
3.6604638100

> <CNNaffinity_variance>
0.0917772278

$$$$
[H]c1nc([H])c(N([H])c2c([H])c(-c3c([H])c([H])c4c([H])c(C#N)c([H])nn34)nc([H])c2C(=O)N([H])[C@]2([H])C([H])([H])C([H])([H])[C@@]([H])(N([H])C(=O)C3([H])C([H])([H])C3([H])[H])C([H])([H])C2([H])[H])c([H])c1[H]


 42 47  0  0  0  0  0  0  0  0999 V2000
   54.3442   -4.0932   -8.3757 C   0  0  0  0  0  0  0  0  0  0  0  0
   55.2270   -4.6913   -7.5271 C   0  0  0  0  0  0  0  0  0  0  0  0
   56.4823   -5.1947   -7.8568 C   0  0  0  0  0  0  0  0  0  0  0  0
   56.8614   -5.0653   -9.1968 C   0  0  0  0  0  0  0  0  0  0  0  0
   55.9614   -4.4536  -10.0819 C   0  0  0  0  0  0  0  0  0  0  0  0
   54.7740   -3.9993   -9.6731 N   0  0  0  0  0  0  0  0  0  0  0  0
   50.2262   -4.3090   -5.1989 C   0  0  0  0  0  0  0  0  0  0  0  0
   51.3821   -5.0456   -5.1862 C   0  0  0  0  0  0  0  0  0  0  0  0
   52.3078   -4.8022   -6.1159 N   0  0  0  0  0  0  0  0  0  0  0  0
   52.1826   -3.8848   -7.0613 N   0  0  0  0  0  0  0  0  0  0  0  0
   53.0322   -3.5629   -8.0296 C   0  0  0  0  0  0  0  0  0  0  0  0
   52.4114   -2.5348   -8.7512 C   0  0  0  0  0  0  0  0  0  0  0  0
   51.1918   -2.2744   -8.1780 C   0  0  0  0  0  0  0  0  0  0  0  0
   51.0617   -3.1470   -7.0984 C   0  0  0  0  0  0  0  0  0  0  0  0
   50.0665   -3.3453   -6.1707 C   0  0  0  0  0  0  0  0  0  0  0  0
   48.4147   -4.7675   -3.4063 N   0  0  0  0  0  0  0  0  0  0  0  0
   49.2228   -4.5631   -4.2115 C   0  0  0  0  0  0  0  0  0  0  0  0
   58.1671   -5.4531   -9.6618 C   0  0  0  0  0  0  0  0  0  0  0  0
   58.5335   -5.1370  -10.8467 O   0  0  0  0  0  0  0  0  0  0  0  0
   59.0939   -6.1722   -8.8839 N   0  0  0  0  0  0  0  0  0  0  0  0
   58.8490   -6.4438   -7.9146 H   0  0  0  0  0  0  0  0  0  0  0  0
   60.3807   -6.5077   -9.4744 C   0  0  0  0  0  0  0  0  0  0  0  0
   61.4418   -6.0851   -8.4535 C   0  0  0  0  0  0  0  0  0  0  0  0
   62.7996   -6.5985   -8.9190 C   0  0  0  0  0  0  0  0  0  0  0  0
   62.7651   -8.1132   -8.6668 C   0  0  0  0  0  0  0  0  0  0  0  0
   61.3766   -8.6452   -8.7504 C   0  0  0  0  0  0  0  0  0  0  0  0
   60.5628   -7.9310   -9.8426 C   0  0  0  0  0  0  0  0  0  0  0  0
   63.6027   -8.7252   -9.6879 N   0  0  0  0  0  0  0  0  0  0  0  0
   64.3659   -9.8674   -9.3691 C   0  0  0  0  0  0  0  0  0  0  0  0
   64.3243  -10.3529   -8.1913 O   0  0  0  0  0  0  0  0  0  0  0  0
   63.6408   -8.3333  -10.6440 H   0  0  0  0  0  0  0  0  0  0  0  0
   65.2176  -10.5127  -10.3844 C   0  0  0  0  0  0  0  0  0  0  0  0
   64.9879  -10.2682  -11.8095 C   0  0  0  0  0  0  0  0  0  0  0  0
   64.4277  -11.5277  -11.2349 C   0  0  0  0  0  0  0  0  0  0  0  0
   57.2254   -5.8950   -6.9055 N   0  0  0  0  0  0  0  0  0  0  0  0
   58.2597   -5.9903   -6.9985 H   0  0  0  0  0  0  0  0  0  0  0  0
   56.6615   -6.5636   -5.7998 C   0  0  0  0  0  0  0  0  0  0  0  0
   55.3963   -7.1655   -5.8003 C   0  0  0  0  0  0  0  0  0  0  0  0
   54.8990   -7.8012   -4.6921 C   0  0  0  0  0  0  0  0  0  0  0  0
   55.6612   -7.8497   -3.5491 C   0  0  0  0  0  0  0  0  0  0  0  0
   56.8787   -7.2820   -3.5133 N   0  0  0  0  0  0  0  0  0  0  0  0
   57.3586   -6.6654   -4.5937 C   0  0  0  0  0  0  0  0  0  0  0  0
 16 17  3  0  0  0
 17  7  1  0  0  0
  7  8  1  0  0  0
  8  9  2  0  0  0
  9 10  1  0  0  0
 10 11  1  0  0  0
 11  1  1  0  0  0
  1  2  2  0  0  0
  2  3  1  0  0  0
  3 35  1  0  0  0
 35 37  1  0  0  0
 37 38  2  0  0  0
 38 39  1  0  0  0
 39 40  2  0  0  0
 40 41  1  0  0  0
 41 42  2  0  0  0
  3  4  2  0  0  0
  4 18  1  0  0  0
 18 19  2  0  0  0
 18 20  1  0  0  0
 20 22  1  0  0  0
 22 23  1  0  0  0
 23 24  1  0  0  0
 24 25  1  0  0  0
 25 28  1  0  0  0
 28 29  1  0  0  0
 29 30  2  0  0  0
 29 32  1  0  0  0
 32 33  1  0  0  0
 33 34  1  0  0  0
 25 26  1  0  0  0
 26 27  1  0  0  0
  4  5  1  0  0  0
  5  6  2  0  0  0
 11 12  2  0  0  0
 12 13  1  0  0  0
 13 14  2  0  0  0
 14 15  1  0  0  0
 15  7  2  0  0  0
 14 10  1  0  0  0
  6  1  1  0  0  0
 42 37  1  0  0  0
 27 22  1  0  0  0
 34 32  1  0  0  0
 35 36  1  0  0  0
 20 21  1  0  0  0
 28 31  1  0  0  0
M  END
> <minimizedAffinity>
-9.55724

> <CNNscore>
0.4797439575

> <CNNaffinity>
7.4550275803

> <CNN_VS>
3.5765044689

> <CNNaffinity_variance>
0.0221073236

$$$$
[H]c1nc([H])c(N([H])c2c([H])c(-c3c([H])c([H])c4c([H])c(C#N)c([H])nn34)nc([H])c2C(=O)N([H])[C@]2([H])C([H])([H])C([H])([H])[C@@]([H])(N([H])C(=O)C3([H])C([H])([H])C3([H])[H])C([H])([H])C2([H])[H])c([H])c1[H]


 42 47  0  0  0  0  0  0  0  0999 V2000
   56.6019   -4.2382  -10.8530 C   0  0  0  0  0  0  0  0  0  0  0  0
   55.5772   -3.7573  -10.0940 C   0  0  0  0  0  0  0  0  0  0  0  0
   55.3774   -3.9799   -8.7345 C   0  0  0  0  0  0  0  0  0  0  0  0
   56.3331   -4.7782   -8.0977 C   0  0  0  0  0  0  0  0  0  0  0  0
   57.3921   -5.2819   -8.8674 C   0  0  0  0  0  0  0  0  0  0  0  0
   57.5018   -5.0141  -10.1712 N   0  0  0  0  0  0  0  0  0  0  0  0
   59.9971   -3.3021  -14.6862 C   0  0  0  0  0  0  0  0  0  0  0  0
   60.2183   -3.4914  -13.3467 C   0  0  0  0  0  0  0  0  0  0  0  0
   59.1727   -3.7226  -12.5506 N   0  0  0  0  0  0  0  0  0  0  0  0
   57.9203   -3.7824  -12.9737 N   0  0  0  0  0  0  0  0  0  0  0  0
   56.8129   -4.0019  -12.2749 C   0  0  0  0  0  0  0  0  0  0  0  0
   55.7648   -3.9599  -13.2040 C   0  0  0  0  0  0  0  0  0  0  0  0
   56.2929   -3.7126  -14.4465 C   0  0  0  0  0  0  0  0  0  0  0  0
   57.6729   -3.6019  -14.2807 C   0  0  0  0  0  0  0  0  0  0  0  0
   58.7037   -3.3592  -15.1577 C   0  0  0  0  0  0  0  0  0  0  0  0
   62.0042   -2.8385  -16.2553 N   0  0  0  0  0  0  0  0  0  0  0  0
   61.1083   -3.0479  -15.5505 C   0  0  0  0  0  0  0  0  0  0  0  0
   56.3078   -5.0138   -6.6780 C   0  0  0  0  0  0  0  0  0  0  0  0
   56.1959   -4.0221   -5.8767 O   0  0  0  0  0  0  0  0  0  0  0  0
   56.3974   -6.2915   -6.0944 N   0  0  0  0  0  0  0  0  0  0  0  0
   56.4799   -7.1279   -6.7003 H   0  0  0  0  0  0  0  0  0  0  0  0
   56.3651   -6.3937   -4.6433 C   0  0  0  0  0  0  0  0  0  0  0  0
   55.3723   -7.5135   -4.3163 C   0  0  0  0  0  0  0  0  0  0  0  0
   55.4477   -7.8130   -2.8236 C   0  0  0  0  0  0  0  0  0  0  0  0
   56.7759   -8.5596   -2.6296 C   0  0  0  0  0  0  0  0  0  0  0  0
   57.7794   -8.1555   -3.6531 C   0  0  0  0  0  0  0  0  0  0  0  0
   57.6691   -6.6596   -3.9926 C   0  0  0  0  0  0  0  0  0  0  0  0
   57.2519   -8.2241   -1.2956 N   0  0  0  0  0  0  0  0  0  0  0  0
   57.9301   -9.1978   -0.5335 C   0  0  0  0  0  0  0  0  0  0  0  0
   58.1165  -10.3646   -1.0115 O   0  0  0  0  0  0  0  0  0  0  0  0
   57.1011   -7.2793   -0.9034 H   0  0  0  0  0  0  0  0  0  0  0  0
   58.4297   -8.8846    0.8174 C   0  0  0  0  0  0  0  0  0  0  0  0
   58.5758   -7.4937    1.2504 C   0  0  0  0  0  0  0  0  0  0  0  0
   59.8067   -8.1922    0.7737 C   0  0  0  0  0  0  0  0  0  0  0  0
   54.2117   -3.5251   -8.1167 N   0  0  0  0  0  0  0  0  0  0  0  0
   54.1039   -2.5230   -7.8490 H   0  0  0  0  0  0  0  0  0  0  0  0
   53.1325   -4.3581   -7.7576 C   0  0  0  0  0  0  0  0  0  0  0  0
   53.1694   -5.7583   -7.7892 C   0  0  0  0  0  0  0  0  0  0  0  0
   52.0857   -6.5172   -7.4297 C   0  0  0  0  0  0  0  0  0  0  0  0
   50.9313   -5.8884   -7.0274 C   0  0  0  0  0  0  0  0  0  0  0  0
   50.8608   -4.5471   -6.9862 N   0  0  0  0  0  0  0  0  0  0  0  0
   51.9175   -3.8130   -7.3361 C   0  0  0  0  0  0  0  0  0  0  0  0
 16 17  3  0  0  0
 17  7  1  0  0  0
  7  8  1  0  0  0
  8  9  2  0  0  0
  9 10  1  0  0  0
 10 11  1  0  0  0
 11  1  1  0  0  0
  1  2  2  0  0  0
  2  3  1  0  0  0
  3 35  1  0  0  0
 35 37  1  0  0  0
 37 38  2  0  0  0
 38 39  1  0  0  0
 39 40  2  0  0  0
 40 41  1  0  0  0
 41 42  2  0  0  0
  3  4  2  0  0  0
  4 18  1  0  0  0
 18 19  2  0  0  0
 18 20  1  0  0  0
 20 22  1  0  0  0
 22 23  1  0  0  0
 23 24  1  0  0  0
 24 25  1  0  0  0
 25 28  1  0  0  0
 28 29  1  0  0  0
 29 30  2  0  0  0
 29 32  1  0  0  0
 32 33  1  0  0  0
 33 34  1  0  0  0
 25 26  1  0  0  0
 26 27  1  0  0  0
  4  5  1  0  0  0
  5  6  2  0  0  0
 11 12  2  0  0  0
 12 13  1  0  0  0
 13 14  2  0  0  0
 14 15  1  0  0  0
 15  7  2  0  0  0
 14 10  1  0  0  0
  6  1  1  0  0  0
 42 37  1  0  0  0
 27 22  1  0  0  0
 34 32  1  0  0  0
 35 36  1  0  0  0
 20 21  1  0  0  0
 28 31  1  0  0  0
M  END
> <minimizedAffinity>
-8.03768

> <CNNscore>
0.4730795026

> <CNNaffinity>
7.1861510277

> <CNN_VS>
3.3996207714

> <CNNaffinity_variance>
0.0461896434

$$$$
[H]c1nc([H])c(N([H])c2c([H])c(-c3c([H])c([H])c4c([H])c(C#N)c([H])nn34)nc([H])c2C(=O)N([H])[C@]2([H])C([H])([H])C([H])([H])[C@@]([H])(N([H])C(=O)C3([H])C([H])([H])C3([H])[H])C([H])([H])C2([H])[H])c([H])c1[H]


 42 47  0  0  0  0  0  0  0  0999 V2000
   56.6114   -4.1078  -11.2462 C   0  0  0  0  0  0  0  0  0  0  0  0
   55.5485   -3.6089  -10.5541 C   0  0  0  0  0  0  0  0  0  0  0  0
   55.3205   -3.7283   -9.1860 C   0  0  0  0  0  0  0  0  0  0  0  0
   56.2886   -4.4328   -8.4631 C   0  0  0  0  0  0  0  0  0  0  0  0
   57.3868   -4.9538   -9.1631 C   0  0  0  0  0  0  0  0  0  0  0  0
   57.5216   -4.7885  -10.4814 N   0  0  0  0  0  0  0  0  0  0  0  0
   60.0599   -3.2790  -15.0563 C   0  0  0  0  0  0  0  0  0  0  0  0
   60.2503   -3.3396  -13.7002 C   0  0  0  0  0  0  0  0  0  0  0  0
   59.1967   -3.5705  -12.9145 N   0  0  0  0  0  0  0  0  0  0  0  0
   57.9646   -3.7476  -13.3633 N   0  0  0  0  0  0  0  0  0  0  0  0
   56.8517   -3.9792  -12.6772 C   0  0  0  0  0  0  0  0  0  0  0  0
   55.8329   -4.0846  -13.6334 C   0  0  0  0  0  0  0  0  0  0  0  0
   56.3832   -3.9092  -14.8784 C   0  0  0  0  0  0  0  0  0  0  0  0
   57.7475   -3.6948  -14.6871 C   0  0  0  0  0  0  0  0  0  0  0  0
   58.7881   -3.4603  -15.5546 C   0  0  0  0  0  0  0  0  0  0  0  0
   62.0832   -2.8255  -16.6074 N   0  0  0  0  0  0  0  0  0  0  0  0
   61.1796   -3.0267  -15.9102 C   0  0  0  0  0  0  0  0  0  0  0  0
   56.2337   -4.5533   -7.0298 C   0  0  0  0  0  0  0  0  0  0  0  0
   56.3678   -3.5075   -6.3041 O   0  0  0  0  0  0  0  0  0  0  0  0
   56.0354   -5.7714   -6.3532 N   0  0  0  0  0  0  0  0  0  0  0  0
   55.9119   -6.6456   -6.8955 H   0  0  0  0  0  0  0  0  0  0  0  0
   56.0052   -5.7586   -4.8986 C   0  0  0  0  0  0  0  0  0  0  0  0
   54.5255   -5.7344   -4.5027 C   0  0  0  0  0  0  0  0  0  0  0  0
   54.4198   -5.9307   -2.9947 C   0  0  0  0  0  0  0  0  0  0  0  0
   54.7421   -7.4137   -2.7584 C   0  0  0  0  0  0  0  0  0  0  0  0
   55.6585   -7.9429   -3.8063 C   0  0  0  0  0  0  0  0  0  0  0  0
   56.6940   -6.8899   -4.2354 C   0  0  0  0  0  0  0  0  0  0  0  0
   55.3699   -7.5004   -1.4480 N   0  0  0  0  0  0  0  0  0  0  0  0
   55.7977   -6.3219   -0.8021 C   0  0  0  0  0  0  0  0  0  0  0  0
   55.6396   -5.1915   -1.3692 O   0  0  0  0  0  0  0  0  0  0  0  0
   55.5018   -8.4157   -0.9853 H   0  0  0  0  0  0  0  0  0  0  0  0
   56.4300   -6.3782    0.5282 C   0  0  0  0  0  0  0  0  0  0  0  0
   57.2223   -5.2501    1.0214 C   0  0  0  0  0  0  0  0  0  0  0  0
   57.9687   -6.4014    0.4316 C   0  0  0  0  0  0  0  0  0  0  0  0
   54.1217   -3.2727   -8.6358 N   0  0  0  0  0  0  0  0  0  0  0  0
   53.9065   -2.2533   -8.5915 H   0  0  0  0  0  0  0  0  0  0  0  0
   53.1491   -4.1136   -8.0574 C   0  0  0  0  0  0  0  0  0  0  0  0
   52.0412   -3.6584   -7.3305 C   0  0  0  0  0  0  0  0  0  0  0  0
   51.1277   -4.5254   -6.7887 C   0  0  0  0  0  0  0  0  0  0  0  0
   51.3027   -5.8778   -6.9625 C   0  0  0  0  0  0  0  0  0  0  0  0
   52.3547   -6.3490   -7.6533 N   0  0  0  0  0  0  0  0  0  0  0  0
   53.2402   -5.5020   -8.1791 C   0  0  0  0  0  0  0  0  0  0  0  0
 16 17  3  0  0  0
 17  7  1  0  0  0
  7  8  1  0  0  0
  8  9  2  0  0  0
  9 10  1  0  0  0
 10 11  1  0  0  0
 11  1  1  0  0  0
  1  2  2  0  0  0
  2  3  1  0  0  0
  3 35  1  0  0  0
 35 37  1  0  0  0
 37 38  2  0  0  0
 38 39  1  0  0  0
 39 40  2  0  0  0
 40 41  1  0  0  0
 41 42  2  0  0  0
  3  4  2  0  0  0
  4 18  1  0  0  0
 18 19  2  0  0  0
 18 20  1  0  0  0
 20 22  1  0  0  0
 22 23  1  0  0  0
 23 24  1  0  0  0
 24 25  1  0  0  0
 25 28  1  0  0  0
 28 29  1  0  0  0
 29 30  2  0  0  0
 29 32  1  0  0  0
 32 33  1  0  0  0
 33 34  1  0  0  0
 25 26  1  0  0  0
 26 27  1  0  0  0
  4  5  1  0  0  0
  5  6  2  0  0  0
 11 12  2  0  0  0
 12 13  1  0  0  0
 13 14  2  0  0  0
 14 15  1  0  0  0
 15  7  2  0  0  0
 14 10  1  0  0  0
  6  1  1  0  0  0
 42 37  1  0  0  0
 27 22  1  0  0  0
 34 32  1  0  0  0
 35 36  1  0  0  0
 20 21  1  0  0  0
 28 31  1  0  0  0
M  END
> <minimizedAffinity>
-8.72345

> <CNNscore>
0.4153334498

> <CNNaffinity>
7.3638815880

> <CNN_VS>
3.0584664345

> <CNNaffinity_variance>
0.0963328108

$$$$
[H]c1nc([H])c(N([H])c2c([H])c(-c3c([H])c([H])c4c([H])c(C#N)c([H])nn34)nc([H])c2C(=O)N([H])[C@]2([H])C([H])([H])C([H])([H])[C@@]([H])(N([H])C(=O)C3([H])C([H])([H])C3([H])[H])C([H])([H])C2([H])[H])c([H])c1[H]


 42 47  0  0  0  0  0  0  0  0999 V2000
   57.0992   -4.2955  -11.2582 C   0  0  0  0  0  0  0  0  0  0  0  0
   58.0078   -4.8987  -10.4408 C   0  0  0  0  0  0  0  0  0  0  0  0
   57.8669   -5.1341   -9.0761 C   0  0  0  0  0  0  0  0  0  0  0  0
   56.6668   -4.7037   -8.5011 C   0  0  0  0  0  0  0  0  0  0  0  0
   55.7235   -4.0792   -9.3303 C   0  0  0  0  0  0  0  0  0  0  0  0
   55.9471   -3.8957  -10.6341 N   0  0  0  0  0  0  0  0  0  0  0  0
   60.3045   -3.2387  -15.2212 C   0  0  0  0  0  0  0  0  0  0  0  0
   60.5849   -3.4187  -13.8916 C   0  0  0  0  0  0  0  0  0  0  0  0
   59.5806   -3.6874  -13.0552 N   0  0  0  0  0  0  0  0  0  0  0  0
   58.3156   -3.7934  -13.4288 N   0  0  0  0  0  0  0  0  0  0  0  0
   57.2453   -4.0528  -12.6872 C   0  0  0  0  0  0  0  0  0  0  0  0
   56.1607   -4.0500  -13.5743 C   0  0  0  0  0  0  0  0  0  0  0  0
   56.6302   -3.7845  -14.8364 C   0  0  0  0  0  0  0  0  0  0  0  0
   58.0105   -3.6231  -14.7250 C   0  0  0  0  0  0  0  0  0  0  0  0
   58.9965   -3.3436  -15.6416 C   0  0  0  0  0  0  0  0  0  0  0  0
   62.2309   -2.7009  -16.8660 N   0  0  0  0  0  0  0  0  0  0  0  0
   61.3708   -2.9447  -16.1284 C   0  0  0  0  0  0  0  0  0  0  0  0
   56.3433   -4.9654   -7.1232 C   0  0  0  0  0  0  0  0  0  0  0  0
   56.0907   -3.9863   -6.3384 O   0  0  0  0  0  0  0  0  0  0  0  0
   56.2814   -6.2559   -6.5647 N   0  0  0  0  0  0  0  0  0  0  0  0
   56.4684   -7.0825   -7.1606 H   0  0  0  0  0  0  0  0  0  0  0  0
   55.9478   -6.3846   -5.1543 C   0  0  0  0  0  0  0  0  0  0  0  0
   55.2649   -7.7472   -5.0000 C   0  0  0  0  0  0  0  0  0  0  0  0
   55.0779   -8.0347   -3.5147 C   0  0  0  0  0  0  0  0  0  0  0  0
   56.4817   -8.3711   -2.9901 C   0  0  0  0  0  0  0  0  0  0  0  0
   57.5365   -7.6805   -3.7827 C   0  0  0  0  0  0  0  0  0  0  0  0
   57.0883   -6.2745   -4.2155 C   0  0  0  0  0  0  0  0  0  0  0  0
   56.5244   -7.9329   -1.6026 N   0  0  0  0  0  0  0  0  0  0  0  0
   57.2519   -8.6854   -0.6574 C   0  0  0  0  0  0  0  0  0  0  0  0
   57.8606   -9.7451   -1.0193 O   0  0  0  0  0  0  0  0  0  0  0  0
   56.0303   -7.0749   -1.3045 H   0  0  0  0  0  0  0  0  0  0  0  0
   57.3189   -8.2622    0.7530 C   0  0  0  0  0  0  0  0  0  0  0  0
   56.9989   -6.8842    1.1301 C   0  0  0  0  0  0  0  0  0  0  0  0
   58.4438   -7.2349    0.9909 C   0  0  0  0  0  0  0  0  0  0  0  0
   58.9362   -5.6501   -8.3428 N   0  0  0  0  0  0  0  0  0  0  0  0
   58.9801   -5.5348   -7.3073 H   0  0  0  0  0  0  0  0  0  0  0  0
   60.0458   -6.3023   -8.9182 C   0  0  0  0  0  0  0  0  0  0  0  0
   61.3798   -5.9302   -8.7057 C   0  0  0  0  0  0  0  0  0  0  0  0
   62.4192   -6.6024   -9.2951 C   0  0  0  0  0  0  0  0  0  0  0  0
   62.1464   -7.6701  -10.1169 C   0  0  0  0  0  0  0  0  0  0  0  0
   60.8785   -8.0535  -10.3434 N   0  0  0  0  0  0  0  0  0  0  0  0
   59.8707   -7.3972   -9.7675 C   0  0  0  0  0  0  0  0  0  0  0  0
 16 17  3  0  0  0
 17  7  1  0  0  0
  7  8  1  0  0  0
  8  9  2  0  0  0
  9 10  1  0  0  0
 10 11  1  0  0  0
 11  1  1  0  0  0
  1  2  2  0  0  0
  2  3  1  0  0  0
  3 35  1  0  0  0
 35 37  1  0  0  0
 37 38  2  0  0  0
 38 39  1  0  0  0
 39 40  2  0  0  0
 40 41  1  0  0  0
 41 42  2  0  0  0
  3  4  2  0  0  0
  4 18  1  0  0  0
 18 19  2  0  0  0
 18 20  1  0  0  0
 20 22  1  0  0  0
 22 23  1  0  0  0
 23 24  1  0  0  0
 24 25  1  0  0  0
 25 28  1  0  0  0
 28 29  1  0  0  0
 29 30  2  0  0  0
 29 32  1  0  0  0
 32 33  1  0  0  0
 33 34  1  0  0  0
 25 26  1  0  0  0
 26 27  1  0  0  0
  4  5  1  0  0  0
  5  6  2  0  0  0
 11 12  2  0  0  0
 12 13  1  0  0  0
 13 14  2  0  0  0
 14 15  1  0  0  0
 15  7  2  0  0  0
 14 10  1  0  0  0
  6  1  1  0  0  0
 42 37  1  0  0  0
 27 22  1  0  0  0
 34 32  1  0  0  0
 35 36  1  0  0  0
 20 21  1  0  0  0
 28 31  1  0  0  0
M  END
> <minimizedAffinity>
-7.56179

> <CNNscore>
0.3869434893

> <CNNaffinity>
6.5128479004

> <CNN_VS>
2.5201041698

> <CNNaffinity_variance>
0.5825973749

$$$$
[H]c1nc([H])c(N([H])c2c([H])c(-c3c([H])c([H])c4c([H])c(C#N)c([H])nn34)nc([H])c2C(=O)N([H])[C@]2([H])C([H])([H])C([H])([H])[C@@]([H])(N([H])C(=O)C3([H])C([H])([H])C3([H])[H])C([H])([H])C2([H])[H])c([H])c1[H]


 42 47  0  0  0  0  0  0  0  0999 V2000
   55.7189   -5.3336   -5.7033 C   0  0  0  0  0  0  0  0  0  0  0  0
   54.8926   -4.9304   -6.7094 C   0  0  0  0  0  0  0  0  0  0  0  0
   55.2265   -4.8012   -8.0546 C   0  0  0  0  0  0  0  0  0  0  0  0
   56.5455   -5.1218   -8.3917 C   0  0  0  0  0  0  0  0  0  0  0  0
   57.4076   -5.5361   -7.3658 C   0  0  0  0  0  0  0  0  0  0  0  0
   56.9965   -5.6305   -6.0986 N   0  0  0  0  0  0  0  0  0  0  0  0
   52.1347   -6.7261   -2.1946 C   0  0  0  0  0  0  0  0  0  0  0  0
   52.0784   -6.7561   -3.5639 C   0  0  0  0  0  0  0  0  0  0  0  0
   53.1409   -6.3449   -4.2585 N   0  0  0  0  0  0  0  0  0  0  0  0
   54.2600   -5.9048   -3.7062 N   0  0  0  0  0  0  0  0  0  0  0  0
   55.3681   -5.4726   -4.2963 C   0  0  0  0  0  0  0  0  0  0  0  0
   56.2398   -5.1249   -3.2558 C   0  0  0  0  0  0  0  0  0  0  0  0
   55.6103   -5.3663   -2.0603 C   0  0  0  0  0  0  0  0  0  0  0  0
   54.3449   -5.8649   -2.3670 C   0  0  0  0  0  0  0  0  0  0  0  0
   53.2870   -6.2735   -1.5897 C   0  0  0  0  0  0  0  0  0  0  0  0
   50.0866   -7.5130   -0.8194 N   0  0  0  0  0  0  0  0  0  0  0  0
   51.0009   -7.1588   -1.4373 C   0  0  0  0  0  0  0  0  0  0  0  0
   57.0053   -5.1267   -9.7556 C   0  0  0  0  0  0  0  0  0  0  0  0
   58.1766   -5.5675  -10.0240 O   0  0  0  0  0  0  0  0  0  0  0  0
   56.2365   -4.6712  -10.8430 N   0  0  0  0  0  0  0  0  0  0  0  0
   55.2780   -4.3133  -10.6797 H   0  0  0  0  0  0  0  0  0  0  0  0
   56.8205   -4.7248  -12.1746 C   0  0  0  0  0  0  0  0  0  0  0  0
   55.7833   -5.4121  -13.0681 C   0  0  0  0  0  0  0  0  0  0  0  0
   56.2445   -5.3130  -14.5177 C   0  0  0  0  0  0  0  0  0  0  0  0
   56.0172   -3.8463  -14.9129 C   0  0  0  0  0  0  0  0  0  0  0  0
   56.1222   -2.9443  -13.7325 C   0  0  0  0  0  0  0  0  0  0  0  0
   57.2101   -3.4184  -12.7542 C   0  0  0  0  0  0  0  0  0  0  0  0
   57.0404   -3.5153  -15.8939 N   0  0  0  0  0  0  0  0  0  0  0  0
   56.6585   -3.0133  -17.1551 C   0  0  0  0  0  0  0  0  0  0  0  0
   55.4240   -2.8585  -17.4319 O   0  0  0  0  0  0  0  0  0  0  0  0
   58.0429   -3.6413  -15.6740 H   0  0  0  0  0  0  0  0  0  0  0  0
   57.6727   -2.6628  -18.1658 C   0  0  0  0  0  0  0  0  0  0  0  0
   59.0367   -2.3189  -17.7599 C   0  0  0  0  0  0  0  0  0  0  0  0
   58.1074   -1.1876  -18.0549 C   0  0  0  0  0  0  0  0  0  0  0  0
   54.3081   -4.2555   -8.9524 N   0  0  0  0  0  0  0  0  0  0  0  0
   54.4860   -4.2776   -9.9797 H   0  0  0  0  0  0  0  0  0  0  0  0
   53.1234   -3.5960   -8.5661 C   0  0  0  0  0  0  0  0  0  0  0  0
   52.1619   -4.1378   -7.7029 C   0  0  0  0  0  0  0  0  0  0  0  0
   51.0262   -3.4489   -7.3639 C   0  0  0  0  0  0  0  0  0  0  0  0
   50.8241   -2.1927   -7.8846 C   0  0  0  0  0  0  0  0  0  0  0  0
   51.7253   -1.6431   -8.7163 N   0  0  0  0  0  0  0  0  0  0  0  0
   52.8288   -2.3166   -9.0427 C   0  0  0  0  0  0  0  0  0  0  0  0
 16 17  3  0  0  0
 17  7  1  0  0  0
  7  8  1  0  0  0
  8  9  2  0  0  0
  9 10  1  0  0  0
 10 11  1  0  0  0
 11  1  1  0  0  0
  1  2  2  0  0  0
  2  3  1  0  0  0
  3 35  1  0  0  0
 35 37  1  0  0  0
 37 38  2  0  0  0
 38 39  1  0  0  0
 39 40  2  0  0  0
 40 41  1  0  0  0
 41 42  2  0  0  0
  3  4  2  0  0  0
  4 18  1  0  0  0
 18 19  2  0  0  0
 18 20  1  0  0  0
 20 22  1  0  0  0
 22 23  1  0  0  0
 23 24  1  0  0  0
 24 25  1  0  0  0
 25 28  1  0  0  0
 28 29  1  0  0  0
 29 30  2  0  0  0
 29 32  1  0  0  0
 32 33  1  0  0  0
 33 34  1  0  0  0
 25 26  1  0  0  0
 26 27  1  0  0  0
  4  5  1  0  0  0
  5  6  2  0  0  0
 11 12  2  0  0  0
 12 13  1  0  0  0
 13 14  2  0  0  0
 14 15  1  0  0  0
 15  7  2  0  0  0
 14 10  1  0  0  0
  6  1  1  0  0  0
 42 37  1  0  0  0
 27 22  1  0  0  0
 34 32  1  0  0  0
 35 36  1  0  0  0
 20 21  1  0  0  0
 28 31  1  0  0  0
M  END
> <minimizedAffinity>
-7.87304

> <CNNscore>
0.3845652044

> <CNNaffinity>
7.3922195435

> <CNN_VS>
2.8427903652

> <CNNaffinity_variance>
0.0463936403

$$$$
[H]c1nc([H])c(N([H])c2c([H])c(-c3c([H])c([H])c4c([H])c(C#N)c([H])nn34)nc([H])c2C(=O)N([H])[C@]2([H])C([H])([H])C([H])([H])[C@@]([H])(N([H])C(=O)C3([H])C([H])([H])C3([H])[H])C([H])([H])C2([H])[H])c([H])c1[H]


 42 47  0  0  0  0  0  0  0  0999 V2000
   56.5164   -4.5112   -9.8657 C   0  0  0  0  0  0  0  0  0  0  0  0
   55.4442   -4.1659   -9.0984 C   0  0  0  0  0  0  0  0  0  0  0  0
   55.0230   -4.7967   -7.9311 C   0  0  0  0  0  0  0  0  0  0  0  0
   55.7875   -5.8921   -7.5168 C   0  0  0  0  0  0  0  0  0  0  0  0
   56.8927   -6.2599   -8.2983 C   0  0  0  0  0  0  0  0  0  0  0  0
   57.2216   -5.5925   -9.4074 N   0  0  0  0  0  0  0  0  0  0  0  0
   56.7803   -4.6127  -15.0635 C   0  0  0  0  0  0  0  0  0  0  0  0
   56.2152   -5.5122  -14.1972 C   0  0  0  0  0  0  0  0  0  0  0  0
   56.2717   -5.2634  -12.8874 N   0  0  0  0  0  0  0  0  0  0  0  0
   56.8442   -4.1920  -12.3625 N   0  0  0  0  0  0  0  0  0  0  0  0
   56.9593   -3.8486  -11.0851 C   0  0  0  0  0  0  0  0  0  0  0  0
   57.6503   -2.6296  -11.0820 C   0  0  0  0  0  0  0  0  0  0  0  0
   57.9280   -2.2822  -12.3804 C   0  0  0  0  0  0  0  0  0  0  0  0
   57.4052   -3.2928  -13.1863 C   0  0  0  0  0  0  0  0  0  0  0  0
   57.3834   -3.4864  -14.5474 C   0  0  0  0  0  0  0  0  0  0  0  0
   56.6853   -5.0778  -17.6090 N   0  0  0  0  0  0  0  0  0  0  0  0
   56.7318   -4.8694  -16.4699 C   0  0  0  0  0  0  0  0  0  0  0  0
   55.5276   -6.5804   -6.2797 C   0  0  0  0  0  0  0  0  0  0  0  0
   54.9191   -7.7063   -6.3010 O   0  0  0  0  0  0  0  0  0  0  0  0
   55.9075   -6.0907   -5.0160 N   0  0  0  0  0  0  0  0  0  0  0  0
   56.4111   -5.1879   -4.9456 H   0  0  0  0  0  0  0  0  0  0  0  0
   55.5801   -6.8820   -3.8398 C   0  0  0  0  0  0  0  0  0  0  0  0
   56.4645   -6.3498   -2.7078 C   0  0  0  0  0  0  0  0  0  0  0  0
   56.0231   -6.9941   -1.3986 C   0  0  0  0  0  0  0  0  0  0  0  0
   54.6904   -6.3167   -1.0462 C   0  0  0  0  0  0  0  0  0  0  0  0
   53.9700   -5.8680   -2.2700 C   0  0  0  0  0  0  0  0  0  0  0  0
   54.1565   -6.8595   -3.4308 C   0  0  0  0  0  0  0  0  0  0  0  0
   53.8982   -7.3039   -0.3273 N   0  0  0  0  0  0  0  0  0  0  0  0
   52.5335   -7.4652   -0.6439 C   0  0  0  0  0  0  0  0  0  0  0  0
   52.0002   -6.7443   -1.5497 O   0  0  0  0  0  0  0  0  0  0  0  0
   54.3265   -7.8894    0.4096 H   0  0  0  0  0  0  0  0  0  0  0  0
   51.7082   -8.4617    0.0623 C   0  0  0  0  0  0  0  0  0  0  0  0
   50.2882   -8.6122   -0.2610 C   0  0  0  0  0  0  0  0  0  0  0  0
   50.6309   -7.7953    0.9413 C   0  0  0  0  0  0  0  0  0  0  0  0
   53.8305   -4.4082   -7.3192 N   0  0  0  0  0  0  0  0  0  0  0  0
   53.7368   -3.4679   -6.8781 H   0  0  0  0  0  0  0  0  0  0  0  0
   52.7000   -5.2413   -7.1940 C   0  0  0  0  0  0  0  0  0  0  0  0
   51.9047   -5.3280   -6.0438 C   0  0  0  0  0  0  0  0  0  0  0  0
   50.8163   -6.1591   -5.9797 C   0  0  0  0  0  0  0  0  0  0  0  0
   50.4960   -6.9289   -7.0728 C   0  0  0  0  0  0  0  0  0  0  0  0
   51.2377   -6.8713   -8.1919 N   0  0  0  0  0  0  0  0  0  0  0  0
   52.2949   -6.0609   -8.2499 C   0  0  0  0  0  0  0  0  0  0  0  0
 16 17  3  0  0  0
 17  7  1  0  0  0
  7  8  1  0  0  0
  8  9  2  0  0  0
  9 10  1  0  0  0
 10 11  1  0  0  0
 11  1  1  0  0  0
  1  2  2  0  0  0
  2  3  1  0  0  0
  3 35  1  0  0  0
 35 37  1  0  0  0
 37 38  2  0  0  0
 38 39  1  0  0  0
 39 40  2  0  0  0
 40 41  1  0  0  0
 41 42  2  0  0  0
  3  4  2  0  0  0
  4 18  1  0  0  0
 18 19  2  0  0  0
 18 20  1  0  0  0
 20 22  1  0  0  0
 22 23  1  0  0  0
 23 24  1  0  0  0
 24 25  1  0  0  0
 25 28  1  0  0  0
 28 29  1  0  0  0
 29 30  2  0  0  0
 29 32  1  0  0  0
 32 33  1  0  0  0
 33 34  1  0  0  0
 25 26  1  0  0  0
 26 27  1  0  0  0
  4  5  1  0  0  0
  5  6  2  0  0  0
 11 12  2  0  0  0
 12 13  1  0  0  0
 13 14  2  0  0  0
 14 15  1  0  0  0
 15  7  2  0  0  0
 14 10  1  0  0  0
  6  1  1  0  0  0
 42 37  1  0  0  0
 27 22  1  0  0  0
 34 32  1  0  0  0
 35 36  1  0  0  0
 20 21  1  0  0  0
 28 31  1  0  0  0
M  END
> <minimizedAffinity>
-0.11484

> <CNNscore>
0.3169457018

> <CNNaffinity>
7.0720319748

> <CNN_VS>
2.2414500713

> <CNNaffinity_variance>
0.2875269055

$$$$
[H]c1c([H])c([H])c(N2C(N3C([H])([H])C([H])([H])C([H])([H])C([H])([H])C3([H])[H])=Nc3c([H])c([H])c([H])c([H])c3C2([H])C([H])([H])C(=O)N([H])C([H])([H])c2c([H])c([H])c([H])c([H])c2[H])c([H])c1[H]


 34 38  0  0  0  0  0  0  0  0999 V2000
   56.4383   -3.4684  -10.1689 C   0  0  0  0  0  0  0  0  0  0  0  0
   56.3529   -3.7652  -11.6024 C   0  0  0  0  0  0  0  0  0  0  0  0
   55.3165   -3.3654  -12.4212 C   0  0  0  0  0  0  0  0  0  0  0  0
   55.4131   -3.5835  -13.7929 C   0  0  0  0  0  0  0  0  0  0  0  0
   56.5093   -4.1871  -14.3592 C   0  0  0  0  0  0  0  0  0  0  0  0
   57.5418   -4.5929  -13.5575 C   0  0  0  0  0  0  0  0  0  0  0  0
   57.4582   -4.3816  -12.1645 C   0  0  0  0  0  0  0  0  0  0  0  0
   58.4519   -4.9911  -11.3465 N   0  0  0  0  0  0  0  0  0  0  0  0
   58.3279   -4.9930  -10.0508 C   0  0  0  0  0  0  0  0  0  0  0  0
   57.1656   -4.4542   -9.4405 N   0  0  0  0  0  0  0  0  0  0  0  0
   59.3630   -5.6137   -9.2894 N   0  0  0  0  0  0  0  0  0  0  0  0
   59.3443   -5.4717   -7.8647 C   0  0  0  0  0  0  0  0  0  0  0  0
   59.7812   -6.7819   -7.1827 C   0  0  0  0  0  0  0  0  0  0  0  0
   61.1457   -7.1019   -7.7507 C   0  0  0  0  0  0  0  0  0  0  0  0
   60.9944   -7.4457   -9.1910 C   0  0  0  0  0  0  0  0  0  0  0  0
   60.3617   -6.3574  -10.0192 C   0  0  0  0  0  0  0  0  0  0  0  0
   56.7616   -4.8948   -8.1601 C   0  0  0  0  0  0  0  0  0  0  0  0
   56.1622   -6.1148   -7.9411 C   0  0  0  0  0  0  0  0  0  0  0  0
   55.7802   -6.5043   -6.6798 C   0  0  0  0  0  0  0  0  0  0  0  0
   55.9730   -5.7058   -5.5773 C   0  0  0  0  0  0  0  0  0  0  0  0
   56.5732   -4.4858   -5.8016 C   0  0  0  0  0  0  0  0  0  0  0  0
   56.9598   -4.0812   -7.0483 C   0  0  0  0  0  0  0  0  0  0  0  0
   55.2983   -2.8263   -9.4981 C   0  0  0  0  0  0  0  0  0  0  0  0
   53.6688   -4.4841  -10.0151 O   0  0  0  0  0  0  0  0  0  0  0  0
   54.1814   -3.7289   -9.1489 C   0  0  0  0  0  0  0  0  0  0  0  0
   53.6401   -3.7844   -7.8302 N   0  0  0  0  0  0  0  0  0  0  0  0
   54.0164   -3.1839   -7.0559 H   0  0  0  0  0  0  0  0  0  0  0  0
   52.5493   -4.6780   -7.5312 C   0  0  0  0  0  0  0  0  0  0  0  0
   51.3786   -3.9846   -6.9450 C   0  0  0  0  0  0  0  0  0  0  0  0
   50.7603   -4.5223   -5.8447 C   0  0  0  0  0  0  0  0  0  0  0  0
   49.6577   -3.9076   -5.2545 C   0  0  0  0  0  0  0  0  0  0  0  0
   49.1688   -2.7290   -5.7828 C   0  0  0  0  0  0  0  0  0  0  0  0
   49.7995   -2.1866   -6.9000 C   0  0  0  0  0  0  0  0  0  0  0  0
   50.9002   -2.8142   -7.4770 C   0  0  0  0  0  0  0  0  0  0  0  0
 24 25  2  0  0  0
 25 23  1  0  0  0
 23  1  1  0  0  0
  1  2  1  0  0  0
  2  3  2  0  0  0
  3  4  1  0  0  0
  4  5  2  0  0  0
  5  6  1  0  0  0
  6  7  2  0  0  0
  7  8  1  0  0  0
  8  9  2  0  0  0
  9 11  1  0  0  0
 11 12  1  0  0  0
 12 13  1  0  0  0
 13 14  1  0  0  0
 14 15  1  0  0  0
 15 16  1  0  0  0
  9 10  1  0  0  0
 10 17  1  0  0  0
 17 18  2  0  0  0
 18 19  1  0  0  0
 19 20  2  0  0  0
 20 21  1  0  0  0
 21 22  2  0  0  0
 25 26  1  0  0  0
 26 28  1  0  0  0
 28 29  1  0  0  0
 29 30  2  0  0  0
 30 31  1  0  0  0
 31 32  2  0  0  0
 32 33  1  0  0  0
 33 34  2  0  0  0
 10  1  1  0  0  0
 22 17  1  0  0  0
 34 29  1  0  0  0
  7  2  1  0  0  0
 16 11  1  0  0  0
 26 27  1  0  0  0
M  END
> <minimizedAffinity>
-2.71268

> <CNNscore>
0.5171251893

> <CNNaffinity>
6.5969343185

> <CNN_VS>
3.4114408493

> <CNNaffinity_variance>
0.2440136671

$$$$
[H]c1c([H])c([H])c(N2C(N3C([H])([H])C([H])([H])C([H])([H])C([H])([H])C3([H])[H])=Nc3c([H])c([H])c([H])c([H])c3C2([H])C([H])([H])C(=O)N([H])C([H])([H])c2c([H])c([H])c([H])c([H])c2[H])c([H])c1[H]


 34 38  0  0  0  0  0  0  0  0999 V2000
   54.3286   -4.2292   -8.7935 C   0  0  0  0  0  0  0  0  0  0  0  0
   55.5081   -4.4145   -9.6448 C   0  0  0  0  0  0  0  0  0  0  0  0
   55.5486   -4.1288  -10.9943 C   0  0  0  0  0  0  0  0  0  0  0  0
   56.7638   -4.2111  -11.6687 C   0  0  0  0  0  0  0  0  0  0  0  0
   57.9271   -4.5701  -11.0328 C   0  0  0  0  0  0  0  0  0  0  0  0
   57.8996   -4.8610   -9.6956 C   0  0  0  0  0  0  0  0  0  0  0  0
   56.6751   -4.7849   -8.9978 C   0  0  0  0  0  0  0  0  0  0  0  0
   56.6465   -5.2837   -7.6642 N   0  0  0  0  0  0  0  0  0  0  0  0
   55.5150   -5.4156   -7.0346 C   0  0  0  0  0  0  0  0  0  0  0  0
   54.2901   -5.1351   -7.6939 N   0  0  0  0  0  0  0  0  0  0  0  0
   55.5574   -5.9136   -5.6979 N   0  0  0  0  0  0  0  0  0  0  0  0
   55.6884   -4.9775   -4.6223 C   0  0  0  0  0  0  0  0  0  0  0  0
   54.8270   -5.4079   -3.4201 C   0  0  0  0  0  0  0  0  0  0  0  0
   55.2800   -6.8087   -3.0746 C   0  0  0  0  0  0  0  0  0  0  0  0
   54.8873   -7.7238   -4.1809 C   0  0  0  0  0  0  0  0  0  0  0  0
   55.4544   -7.3426   -5.5239 C   0  0  0  0  0  0  0  0  0  0  0  0
   53.0905   -5.7440   -7.2616 C   0  0  0  0  0  0  0  0  0  0  0  0
   52.5925   -5.5983   -5.9862 C   0  0  0  0  0  0  0  0  0  0  0  0
   51.4234   -6.2112   -5.6040 C   0  0  0  0  0  0  0  0  0  0  0  0
   50.6930   -6.9960   -6.4646 C   0  0  0  0  0  0  0  0  0  0  0  0
   51.1955   -7.1388   -7.7399 C   0  0  0  0  0  0  0  0  0  0  0  0
   52.3561   -6.5373   -8.1382 C   0  0  0  0  0  0  0  0  0  0  0  0
   53.0491   -3.8486   -9.4100 C   0  0  0  0  0  0  0  0  0  0  0  0
   52.6067   -1.6315   -8.6617 O   0  0  0  0  0  0  0  0  0  0  0  0
   52.2641   -2.8424   -8.6648 C   0  0  0  0  0  0  0  0  0  0  0  0
   51.0966   -3.1936   -7.9240 N   0  0  0  0  0  0  0  0  0  0  0  0
   50.7504   -4.1835   -7.8806 H   0  0  0  0  0  0  0  0  0  0  0  0
   50.3597   -2.1816   -7.2094 C   0  0  0  0  0  0  0  0  0  0  0  0
   49.5976   -2.7250   -6.0609 C   0  0  0  0  0  0  0  0  0  0  0  0
   50.1817   -3.6658   -5.2512 C   0  0  0  0  0  0  0  0  0  0  0  0
   49.5083   -4.2059   -4.1572 C   0  0  0  0  0  0  0  0  0  0  0  0
   48.2222   -3.7903   -3.8737 C   0  0  0  0  0  0  0  0  0  0  0  0
   47.6329   -2.8349   -4.6985 C   0  0  0  0  0  0  0  0  0  0  0  0
   48.3203   -2.3059   -5.7874 C   0  0  0  0  0  0  0  0  0  0  0  0
 24 25  2  0  0  0
 25 23  1  0  0  0
 23  1  1  0  0  0
  1  2  1  0  0  0
  2  3  2  0  0  0
  3  4  1  0  0  0
  4  5  2  0  0  0
  5  6  1  0  0  0
  6  7  2  0  0  0
  7  8  1  0  0  0
  8  9  2  0  0  0
  9 11  1  0  0  0
 11 12  1  0  0  0
 12 13  1  0  0  0
 13 14  1  0  0  0
 14 15  1  0  0  0
 15 16  1  0  0  0
  9 10  1  0  0  0
 10 17  1  0  0  0
 17 18  2  0  0  0
 18 19  1  0  0  0
 19 20  2  0  0  0
 20 21  1  0  0  0
 21 22  2  0  0  0
 25 26  1  0  0  0
 26 28  1  0  0  0
 28 29  1  0  0  0
 29 30  2  0  0  0
 30 31  1  0  0  0
 31 32  2  0  0  0
 32 33  1  0  0  0
 33 34  2  0  0  0
 10  1  1  0  0  0
 22 17  1  0  0  0
 34 29  1  0  0  0
  7  2  1  0  0  0
 16 11  1  0  0  0
 26 27  1  0  0  0
M  END
> <minimizedAffinity>
-9.71070

> <CNNscore>
0.5028018355

> <CNNaffinity>
7.3513512611

> <CNN_VS>
3.6962728500

> <CNNaffinity_variance>
0.3429072499

$$$$
[H]c1c([H])c([H])c(N2C(N3C([H])([H])C([H])([H])C([H])([H])C([H])([H])C3([H])[H])=Nc3c([H])c([H])c([H])c([H])c3C2([H])C([H])([H])C(=O)N([H])C([H])([H])c2c([H])c([H])c([H])c([H])c2[H])c([H])c1[H]


 34 38  0  0  0  0  0  0  0  0999 V2000
   59.7672   -5.8486   -8.6451 C   0  0  0  0  0  0  0  0  0  0  0  0
   58.4082   -5.3030   -8.5688 C   0  0  0  0  0  0  0  0  0  0  0  0
   57.5463   -5.5019   -7.5097 C   0  0  0  0  0  0  0  0  0  0  0  0
   56.3338   -4.8180   -7.4844 C   0  0  0  0  0  0  0  0  0  0  0  0
   55.9659   -3.9503   -8.4835 C   0  0  0  0  0  0  0  0  0  0  0  0
   56.8096   -3.7480   -9.5421 C   0  0  0  0  0  0  0  0  0  0  0  0
   58.0414   -4.4356   -9.5842 C   0  0  0  0  0  0  0  0  0  0  0  0
   58.7985   -4.3549  -10.7876 N   0  0  0  0  0  0  0  0  0  0  0  0
   59.8436   -5.1113  -10.9601 C   0  0  0  0  0  0  0  0  0  0  0  0
   60.1987   -6.0781   -9.9840 N   0  0  0  0  0  0  0  0  0  0  0  0
   60.5622   -4.9749  -12.1855 N   0  0  0  0  0  0  0  0  0  0  0  0
   59.9865   -4.1862  -13.2328 C   0  0  0  0  0  0  0  0  0  0  0  0
   61.0739   -3.3741  -13.9613 C   0  0  0  0  0  0  0  0  0  0  0  0
   62.0873   -4.3885  -14.4417 C   0  0  0  0  0  0  0  0  0  0  0  0
   62.7706   -4.9779  -13.2580 C   0  0  0  0  0  0  0  0  0  0  0  0
   61.8383   -5.6426  -12.2784 C   0  0  0  0  0  0  0  0  0  0  0  0
   60.9493   -7.2185  -10.3482 C   0  0  0  0  0  0  0  0  0  0  0  0
   60.4631   -8.5022  -10.2413 C   0  0  0  0  0  0  0  0  0  0  0  0
   61.2275   -9.5856  -10.6027 C   0  0  0  0  0  0  0  0  0  0  0  0
   62.5074   -9.4498  -11.0861 C   0  0  0  0  0  0  0  0  0  0  0  0
   62.9896   -8.1631  -11.1912 C   0  0  0  0  0  0  0  0  0  0  0  0
   62.2445   -7.0737  -10.8368 C   0  0  0  0  0  0  0  0  0  0  0  0
   60.2248   -6.7870   -7.6097 C   0  0  0  0  0  0  0  0  0  0  0  0
   61.9314   -6.9023   -5.9529 O   0  0  0  0  0  0  0  0  0  0  0  0
   61.6006   -6.5633   -7.1187 C   0  0  0  0  0  0  0  0  0  0  0  0
   62.6040   -5.9602   -7.9339 N   0  0  0  0  0  0  0  0  0  0  0  0
   62.4016   -5.6517   -8.9166 H   0  0  0  0  0  0  0  0  0  0  0  0
   63.9341   -5.7584   -7.4163 C   0  0  0  0  0  0  0  0  0  0  0  0
   64.5656   -7.0120   -6.9421 C   0  0  0  0  0  0  0  0  0  0  0  0
   64.7299   -8.0550   -7.8179 C   0  0  0  0  0  0  0  0  0  0  0  0
   65.3204   -9.2536   -7.4221 C   0  0  0  0  0  0  0  0  0  0  0  0
   65.7533   -9.4042   -6.1193 C   0  0  0  0  0  0  0  0  0  0  0  0
   65.5843   -8.3426   -5.2334 C   0  0  0  0  0  0  0  0  0  0  0  0
   64.9923   -7.1520   -5.6460 C   0  0  0  0  0  0  0  0  0  0  0  0
 24 25  2  0  0  0
 25 23  1  0  0  0
 23  1  1  0  0  0
  1  2  1  0  0  0
  2  3  2  0  0  0
  3  4  1  0  0  0
  4  5  2  0  0  0
  5  6  1  0  0  0
  6  7  2  0  0  0
  7  8  1  0  0  0
  8  9  2  0  0  0
  9 11  1  0  0  0
 11 12  1  0  0  0
 12 13  1  0  0  0
 13 14  1  0  0  0
 14 15  1  0  0  0
 15 16  1  0  0  0
  9 10  1  0  0  0
 10 17  1  0  0  0
 17 18  2  0  0  0
 18 19  1  0  0  0
 19 20  2  0  0  0
 20 21  1  0  0  0
 21 22  2  0  0  0
 25 26  1  0  0  0
 26 28  1  0  0  0
 28 29  1  0  0  0
 29 30  2  0  0  0
 30 31  1  0  0  0
 31 32  2  0  0  0
 32 33  1  0  0  0
 33 34  2  0  0  0
 10  1  1  0  0  0
 22 17  1  0  0  0
 34 29  1  0  0  0
  7  2  1  0  0  0
 16 11  1  0  0  0
 26 27  1  0  0  0
M  END
> <minimizedAffinity>
1.90984

> <CNNscore>
0.4937860072

> <CNNaffinity>
5.4743614197

> <CNN_VS>
2.7031631470

> <CNNaffinity_variance>
0.2586601377

$$$$
[H]c1c([H])c([H])c(N2C(N3C([H])([H])C([H])([H])C([H])([H])C([H])([H])C3([H])[H])=Nc3c([H])c([H])c([H])c([H])c3C2([H])C([H])([H])C(=O)N([H])C([H])([H])c2c([H])c([H])c([H])c([H])c2[H])c([H])c1[H]


 34 38  0  0  0  0  0  0  0  0999 V2000
   61.5428   -7.1961   -8.6349 C   0  0  0  0  0  0  0  0  0  0  0  0
   60.3910   -6.5047   -9.2228 C   0  0  0  0  0  0  0  0  0  0  0  0
   59.1921   -6.2950   -8.5725 C   0  0  0  0  0  0  0  0  0  0  0  0
   58.2210   -5.5030   -9.1791 C   0  0  0  0  0  0  0  0  0  0  0  0
   58.4177   -4.9229  -10.4085 C   0  0  0  0  0  0  0  0  0  0  0  0
   59.6005   -5.1272  -11.0663 C   0  0  0  0  0  0  0  0  0  0  0  0
   60.5942   -5.9299  -10.4662 C   0  0  0  0  0  0  0  0  0  0  0  0
   61.7229   -6.2818  -11.2601 N   0  0  0  0  0  0  0  0  0  0  0  0
   62.5774   -7.1666  -10.8345 C   0  0  0  0  0  0  0  0  0  0  0  0
   62.3560   -7.8460   -9.6085 N   0  0  0  0  0  0  0  0  0  0  0  0
   63.6903   -7.4675  -11.6754 N   0  0  0  0  0  0  0  0  0  0  0  0
   63.5377   -8.4791  -12.6773 C   0  0  0  0  0  0  0  0  0  0  0  0
   64.2730   -8.0781  -13.9701 C   0  0  0  0  0  0  0  0  0  0  0  0
   65.7075   -7.8280  -13.5625 C   0  0  0  0  0  0  0  0  0  0  0  0
   65.7539   -6.6172  -12.6980 C   0  0  0  0  0  0  0  0  0  0  0  0
   64.9021   -6.7142  -11.4588 C   0  0  0  0  0  0  0  0  0  0  0  0
   62.9275   -9.1187   -9.3839 C   0  0  0  0  0  0  0  0  0  0  0  0
   62.2998  -10.2944   -9.7295 C   0  0  0  0  0  0  0  0  0  0  0  0
   62.8885  -11.5129   -9.4900 C   0  0  0  0  0  0  0  0  0  0  0  0
   64.1241  -11.6252   -8.8979 C   0  0  0  0  0  0  0  0  0  0  0  0
   64.7483  -10.4457   -8.5537 C   0  0  0  0  0  0  0  0  0  0  0  0
   64.1788   -9.2249   -8.7839 C   0  0  0  0  0  0  0  0  0  0  0  0
   61.4004   -7.8429   -7.3222 C   0  0  0  0  0  0  0  0  0  0  0  0
   61.7819   -7.1831   -5.0661 O   0  0  0  0  0  0  0  0  0  0  0  0
   62.2253   -7.2647   -6.2409 C   0  0  0  0  0  0  0  0  0  0  0  0
   63.5456   -6.7786   -6.4768 N   0  0  0  0  0  0  0  0  0  0  0  0
   63.9820   -6.8138   -7.4308 H   0  0  0  0  0  0  0  0  0  0  0  0
   64.3170   -6.2206   -5.3945 C   0  0  0  0  0  0  0  0  0  0  0  0
   64.7999   -7.2462   -4.4406 C   0  0  0  0  0  0  0  0  0  0  0  0
   65.2671   -8.4435   -4.9203 C   0  0  0  0  0  0  0  0  0  0  0  0
   65.7347   -9.4394   -4.0650 C   0  0  0  0  0  0  0  0  0  0  0  0
   65.7313   -9.2250   -2.7008 C   0  0  0  0  0  0  0  0  0  0  0  0
   65.2559   -8.0080   -2.2180 C   0  0  0  0  0  0  0  0  0  0  0  0
   64.7924   -7.0239   -3.0870 C   0  0  0  0  0  0  0  0  0  0  0  0
 24 25  2  0  0  0
 25 23  1  0  0  0
 23  1  1  0  0  0
  1  2  1  0  0  0
  2  3  2  0  0  0
  3  4  1  0  0  0
  4  5  2  0  0  0
  5  6  1  0  0  0
  6  7  2  0  0  0
  7  8  1  0  0  0
  8  9  2  0  0  0
  9 11  1  0  0  0
 11 12  1  0  0  0
 12 13  1  0  0  0
 13 14  1  0  0  0
 14 15  1  0  0  0
 15 16  1  0  0  0
  9 10  1  0  0  0
 10 17  1  0  0  0
 17 18  2  0  0  0
 18 19  1  0  0  0
 19 20  2  0  0  0
 20 21  1  0  0  0
 21 22  2  0  0  0
 25 26  1  0  0  0
 26 28  1  0  0  0
 28 29  1  0  0  0
 29 30  2  0  0  0
 30 31  1  0  0  0
 31 32  2  0  0  0
 32 33  1  0  0  0
 33 34  2  0  0  0
 10  1  1  0  0  0
 22 17  1  0  0  0
 34 29  1  0  0  0
  7  2  1  0  0  0
 16 11  1  0  0  0
 26 27  1  0  0  0
M  END
> <minimizedAffinity>
-2.55603

> <CNNscore>
0.4146877527

> <CNNaffinity>
5.4597797394

> <CNN_VS>
2.2641038895

> <CNNaffinity_variance>
0.4620353281

$$$$
[H]c1c([H])c([H])c(N2C(N3C([H])([H])C([H])([H])C([H])([H])C([H])([H])C3([H])[H])=Nc3c([H])c([H])c([H])c([H])c3C2([H])C([H])([H])C(=O)N([H])C([H])([H])c2c([H])c([H])c([H])c([H])c2[H])c([H])c1[H]


 34 38  0  0  0  0  0  0  0  0999 V2000
   58.0877   -6.6737   -4.7690 C   0  0  0  0  0  0  0  0  0  0  0  0
   57.6962   -5.9395   -3.5615 C   0  0  0  0  0  0  0  0  0  0  0  0
   56.6244   -5.0732   -3.4887 C   0  0  0  0  0  0  0  0  0  0  0  0
   56.2642   -4.5424   -2.2531 C   0  0  0  0  0  0  0  0  0  0  0  0
   56.9441   -4.8527   -1.1007 C   0  0  0  0  0  0  0  0  0  0  0  0
   58.0121   -5.7067   -1.1601 C   0  0  0  0  0  0  0  0  0  0  0  0
   58.3919   -6.2514   -2.4055 C   0  0  0  0  0  0  0  0  0  0  0  0
   59.6191   -6.9717   -2.4611 N   0  0  0  0  0  0  0  0  0  0  0  0
   60.1176   -7.3359   -3.6070 C   0  0  0  0  0  0  0  0  0  0  0  0
   59.4839   -6.9558   -4.8185 N   0  0  0  0  0  0  0  0  0  0  0  0
   61.3462   -8.0617   -3.5917 N   0  0  0  0  0  0  0  0  0  0  0  0
   62.1623   -8.0020   -2.4166 C   0  0  0  0  0  0  0  0  0  0  0  0
   62.8009   -9.3738   -2.1288 C   0  0  0  0  0  0  0  0  0  0  0  0
   63.5579   -9.7427   -3.3849 C   0  0  0  0  0  0  0  0  0  0  0  0
   62.5777   -9.9923   -4.4769 C   0  0  0  0  0  0  0  0  0  0  0  0
   61.6772   -8.8211   -4.7735 C   0  0  0  0  0  0  0  0  0  0  0  0
   60.2286   -6.8643   -6.0159 C   0  0  0  0  0  0  0  0  0  0  0  0
   59.6825   -7.0957   -7.2584 C   0  0  0  0  0  0  0  0  0  0  0  0
   60.4427   -7.0003   -8.3993 C   0  0  0  0  0  0  0  0  0  0  0  0
   61.7773   -6.6720   -8.3643 C   0  0  0  0  0  0  0  0  0  0  0  0
   62.3193   -6.4414   -7.1184 C   0  0  0  0  0  0  0  0  0  0  0  0
   61.5794   -6.5315   -5.9730 C   0  0  0  0  0  0  0  0  0  0  0  0
   57.4033   -6.3878   -6.0385 C   0  0  0  0  0  0  0  0  0  0  0  0
   58.8695   -6.9314   -7.8345 O   0  0  0  0  0  0  0  0  0  0  0  0
   58.2891   -6.0358   -7.1677 C   0  0  0  0  0  0  0  0  0  0  0  0
   58.5239   -4.6812   -7.5488 N   0  0  0  0  0  0  0  0  0  0  0  0
   58.0743   -3.8812   -7.0393 H   0  0  0  0  0  0  0  0  0  0  0  0
   59.3964   -4.3803   -8.6560 C   0  0  0  0  0  0  0  0  0  0  0  0
   58.6875   -4.3426   -9.9564 C   0  0  0  0  0  0  0  0  0  0  0  0
   59.4156   -4.2778  -11.1173 C   0  0  0  0  0  0  0  0  0  0  0  0
   58.7966   -4.2429  -12.3654 C   0  0  0  0  0  0  0  0  0  0  0  0
   57.4183   -4.2737  -12.4453 C   0  0  0  0  0  0  0  0  0  0  0  0
   56.6830   -4.3393  -11.2641 C   0  0  0  0  0  0  0  0  0  0  0  0
   57.3178   -4.3735  -10.0255 C   0  0  0  0  0  0  0  0  0  0  0  0
 24 25  2  0  0  0
 25 23  1  0  0  0
 23  1  1  0  0  0
  1  2  1  0  0  0
  2  3  2  0  0  0
  3  4  1  0  0  0
  4  5  2  0  0  0
  5  6  1  0  0  0
  6  7  2  0  0  0
  7  8  1  0  0  0
  8  9  2  0  0  0
  9 11  1  0  0  0
 11 12  1  0  0  0
 12 13  1  0  0  0
 13 14  1  0  0  0
 14 15  1  0  0  0
 15 16  1  0  0  0
  9 10  1  0  0  0
 10 17  1  0  0  0
 17 18  2  0  0  0
 18 19  1  0  0  0
 19 20  2  0  0  0
 20 21  1  0  0  0
 21 22  2  0  0  0
 25 26  1  0  0  0
 26 28  1  0  0  0
 28 29  1  0  0  0
 29 30  2  0  0  0
 30 31  1  0  0  0
 31 32  2  0  0  0
 32 33  1  0  0  0
 33 34  2  0  0  0
 10  1  1  0  0  0
 22 17  1  0  0  0
 34 29  1  0  0  0
  7  2  1  0  0  0
 16 11  1  0  0  0
 26 27  1  0  0  0
M  END
> <minimizedAffinity>
14.33230

> <CNNscore>
0.3946480453

> <CNNaffinity>
5.7309556007

> <CNN_VS>
2.2617104053

> <CNNaffinity_variance>
0.7746806145

$$$$
[H]c1c([H])c([H])c(N2C(N3C([H])([H])C([H])([H])C([H])([H])C([H])([H])C3([H])[H])=Nc3c([H])c([H])c([H])c([H])c3C2([H])C([H])([H])C(=O)N([H])C([H])([H])c2c([H])c([H])c([H])c([H])c2[H])c([H])c1[H]


 34 38  0  0  0  0  0  0  0  0999 V2000
   54.0207   -4.7969   -8.8131 C   0  0  0  0  0  0  0  0  0  0  0  0
   55.0005   -4.1618   -9.7003 C   0  0  0  0  0  0  0  0  0  0  0  0
   56.2290   -4.7031  -10.0200 C   0  0  0  0  0  0  0  0  0  0  0  0
   57.0157   -4.0774  -10.9833 C   0  0  0  0  0  0  0  0  0  0  0  0
   56.6081   -2.9343  -11.6267 C   0  0  0  0  0  0  0  0  0  0  0  0
   55.3940   -2.3845  -11.3150 C   0  0  0  0  0  0  0  0  0  0  0  0
   54.5856   -3.0051  -10.3387 C   0  0  0  0  0  0  0  0  0  0  0  0
   53.4281   -2.3011   -9.8995 N   0  0  0  0  0  0  0  0  0  0  0  0
   52.7476   -2.7270   -8.8750 C   0  0  0  0  0  0  0  0  0  0  0  0
   53.1918   -3.8549   -8.1372 N   0  0  0  0  0  0  0  0  0  0  0  0
   51.5938   -1.9796   -8.4920 N   0  0  0  0  0  0  0  0  0  0  0  0
   51.6081   -0.5589   -8.6699 C   0  0  0  0  0  0  0  0  0  0  0  0
   50.2301   -0.0568   -9.1408 C   0  0  0  0  0  0  0  0  0  0  0  0
   49.2439   -0.5361   -8.0995 C   0  0  0  0  0  0  0  0  0  0  0  0
   49.1605   -2.0206   -8.1686 C   0  0  0  0  0  0  0  0  0  0  0  0
   50.4777   -2.7204   -7.9548 C   0  0  0  0  0  0  0  0  0  0  0  0
   52.8167   -4.0164   -6.7844 C   0  0  0  0  0  0  0  0  0  0  0  0
   53.6783   -4.4841   -5.8177 C   0  0  0  0  0  0  0  0  0  0  0  0
   53.2727   -4.6306   -4.5129 C   0  0  0  0  0  0  0  0  0  0  0  0
   51.9970   -4.3218   -4.1039 C   0  0  0  0  0  0  0  0  0  0  0  0
   51.1383   -3.8542   -5.0750 C   0  0  0  0  0  0  0  0  0  0  0  0
   51.5234   -3.7018   -6.3773 C   0  0  0  0  0  0  0  0  0  0  0  0
   54.3929   -6.0218   -8.0899 C   0  0  0  0  0  0  0  0  0  0  0  0
   52.5731   -7.5522   -8.2207 O   0  0  0  0  0  0  0  0  0  0  0  0
   53.2647   -6.7788   -7.5086 C   0  0  0  0  0  0  0  0  0  0  0  0
   52.9124   -6.6688   -6.1305 N   0  0  0  0  0  0  0  0  0  0  0  0
   53.4436   -6.0436   -5.4757 H   0  0  0  0  0  0  0  0  0  0  0  0
   51.8036   -7.4238   -5.6030 C   0  0  0  0  0  0  0  0  0  0  0  0
   51.9506   -7.7358   -4.1622 C   0  0  0  0  0  0  0  0  0  0  0  0
   51.1786   -7.0659   -3.2471 C   0  0  0  0  0  0  0  0  0  0  0  0
   51.2771   -7.3245   -1.8813 C   0  0  0  0  0  0  0  0  0  0  0  0
   52.1702   -8.2757   -1.4289 C   0  0  0  0  0  0  0  0  0  0  0  0
   52.9522   -8.9534   -2.3615 C   0  0  0  0  0  0  0  0  0  0  0  0
   52.8407   -8.6824   -3.7225 C   0  0  0  0  0  0  0  0  0  0  0  0
 24 25  2  0  0  0
 25 23  1  0  0  0
 23  1  1  0  0  0
  1  2  1  0  0  0
  2  3  2  0  0  0
  3  4  1  0  0  0
  4  5  2  0  0  0
  5  6  1  0  0  0
  6  7  2  0  0  0
  7  8  1  0  0  0
  8  9  2  0  0  0
  9 11  1  0  0  0
 11 12  1  0  0  0
 12 13  1  0  0  0
 13 14  1  0  0  0
 14 15  1  0  0  0
 15 16  1  0  0  0
  9 10  1  0  0  0
 10 17  1  0  0  0
 17 18  2  0  0  0
 18 19  1  0  0  0
 19 20  2  0  0  0
 20 21  1  0  0  0
 21 22  2  0  0  0
 25 26  1  0  0  0
 26 28  1  0  0  0
 28 29  1  0  0  0
 29 30  2  0  0  0
 30 31  1  0  0  0
 31 32  2  0  0  0
 32 33  1  0  0  0
 33 34  2  0  0  0
 10  1  1  0  0  0
 22 17  1  0  0  0
 34 29  1  0  0  0
  7  2  1  0  0  0
 16 11  1  0  0  0
 26 27  1  0  0  0
M  END
> <minimizedAffinity>
19.95386

> <CNNscore>
0.3583456278

> <CNNaffinity>
6.2991089821

> <CNN_VS>
2.2572581768

> <CNNaffinity_variance>
0.7423712611

$$$$
[H]c1c([H])c([H])c(N2C(N3C([H])([H])C([H])([H])C([H])([H])C([H])([H])C3([H])[H])=Nc3c([H])c([H])c([H])c([H])c3C2([H])C([H])([H])C(=O)N([H])C([H])([H])c2c([H])c([H])c([H])c([H])c2[H])c([H])c1[H]


 34 38  0  0  0  0  0  0  0  0999 V2000
   51.5981   -5.6272   -5.8284 C   0  0  0  0  0  0  0  0  0  0  0  0
   50.6542   -4.5090   -5.7331 C   0  0  0  0  0  0  0  0  0  0  0  0
   50.2766   -3.7145   -6.7964 C   0  0  0  0  0  0  0  0  0  0  0  0
   49.2669   -2.7733   -6.6147 C   0  0  0  0  0  0  0  0  0  0  0  0
   48.6336   -2.6082   -5.4071 C   0  0  0  0  0  0  0  0  0  0  0  0
   49.0023   -3.3864   -4.3432 C   0  0  0  0  0  0  0  0  0  0  0  0
   50.0261   -4.3435   -4.5101 C   0  0  0  0  0  0  0  0  0  0  0  0
   50.5176   -4.9910   -3.3408 N   0  0  0  0  0  0  0  0  0  0  0  0
   51.5807   -5.7396   -3.4002 C   0  0  0  0  0  0  0  0  0  0  0  0
   52.3063   -5.8605   -4.6137 N   0  0  0  0  0  0  0  0  0  0  0  0
   52.0154   -6.3658   -2.1938 N   0  0  0  0  0  0  0  0  0  0  0  0
   51.7712   -7.7663   -2.0226 C   0  0  0  0  0  0  0  0  0  0  0  0
   52.9657   -8.4444   -1.3256 C   0  0  0  0  0  0  0  0  0  0  0  0
   53.1622   -7.6918   -0.0289 C   0  0  0  0  0  0  0  0  0  0  0  0
   53.6276   -6.3133   -0.3430 C   0  0  0  0  0  0  0  0  0  0  0  0
   52.6869   -5.5333   -1.2247 C   0  0  0  0  0  0  0  0  0  0  0  0
   53.6784   -6.1976   -4.5950 C   0  0  0  0  0  0  0  0  0  0  0  0
   54.1501   -7.4420   -4.9480 C   0  0  0  0  0  0  0  0  0  0  0  0
   55.4931   -7.7310   -4.9121 C   0  0  0  0  0  0  0  0  0  0  0  0
   56.4313   -6.8034   -4.5257 C   0  0  0  0  0  0  0  0  0  0  0  0
   55.9544   -5.5594   -4.1732 C   0  0  0  0  0  0  0  0  0  0  0  0
   54.6228   -5.2535   -4.2026 C   0  0  0  0  0  0  0  0  0  0  0  0
   52.3139   -5.8588   -7.0916 C   0  0  0  0  0  0  0  0  0  0  0  0
   52.8635   -3.6819   -7.8853 O   0  0  0  0  0  0  0  0  0  0  0  0
   53.2706   -4.8008   -7.4780 C   0  0  0  0  0  0  0  0  0  0  0  0
   54.6818   -4.9973   -7.4078 N   0  0  0  0  0  0  0  0  0  0  0  0
   55.0947   -5.9042   -7.0779 H   0  0  0  0  0  0  0  0  0  0  0  0
   55.5813   -3.9397   -7.7954 C   0  0  0  0  0  0  0  0  0  0  0  0
   56.5470   -4.3562   -8.8390 C   0  0  0  0  0  0  0  0  0  0  0  0
   56.3352   -3.9776  -10.1405 C   0  0  0  0  0  0  0  0  0  0  0  0
   57.2149   -4.3412  -11.1582 C   0  0  0  0  0  0  0  0  0  0  0  0
   58.3289   -5.1007  -10.8591 C   0  0  0  0  0  0  0  0  0  0  0  0
   58.5400   -5.4830   -9.5364 C   0  0  0  0  0  0  0  0  0  0  0  0
   57.6507   -5.1107   -8.5321 C   0  0  0  0  0  0  0  0  0  0  0  0
 24 25  2  0  0  0
 25 23  1  0  0  0
 23  1  1  0  0  0
  1  2  1  0  0  0
  2  3  2  0  0  0
  3  4  1  0  0  0
  4  5  2  0  0  0
  5  6  1  0  0  0
  6  7  2  0  0  0
  7  8  1  0  0  0
  8  9  2  0  0  0
  9 11  1  0  0  0
 11 12  1  0  0  0
 12 13  1  0  0  0
 13 14  1  0  0  0
 14 15  1  0  0  0
 15 16  1  0  0  0
  9 10  1  0  0  0
 10 17  1  0  0  0
 17 18  2  0  0  0
 18 19  1  0  0  0
 19 20  2  0  0  0
 20 21  1  0  0  0
 21 22  2  0  0  0
 25 26  1  0  0  0
 26 28  1  0  0  0
 28 29  1  0  0  0
 29 30  2  0  0  0
 30 31  1  0  0  0
 31 32  2  0  0  0
 32 33  1  0  0  0
 33 34  2  0  0  0
 10  1  1  0  0  0
 22 17  1  0  0  0
 34 29  1  0  0  0
  7  2  1  0  0  0
 16 11  1  0  0  0
 26 27  1  0  0  0
M  END
> <minimizedAffinity>
-11.10893

> <CNNscore>
0.3507642746

> <CNNaffinity>
7.1731376648

> <CNN_VS>
2.5160803795

> <CNNaffinity_variance>
0.1399914473

$$$$
[H]c1c([H])c([H])c(N2C(N3C([H])([H])C([H])([H])C([H])([H])C([H])([H])C3([H])[H])=Nc3c([H])c([H])c([H])c([H])c3C2([H])C([H])([H])C(=O)N([H])C([H])([H])c2c([H])c([H])c([H])c([H])c2[H])c([H])c1[H]


 34 38  0  0  0  0  0  0  0  0999 V2000
   55.8359   -4.1078   -7.6917 C   0  0  0  0  0  0  0  0  0  0  0  0
   54.3797   -4.2773   -7.6587 C   0  0  0  0  0  0  0  0  0  0  0  0
   53.6588   -4.6112   -6.5303 C   0  0  0  0  0  0  0  0  0  0  0  0
   52.2678   -4.6056   -6.5879 C   0  0  0  0  0  0  0  0  0  0  0  0
   51.5875   -4.2788   -7.7355 C   0  0  0  0  0  0  0  0  0  0  0  0
   52.2907   -3.9506   -8.8630 C   0  0  0  0  0  0  0  0  0  0  0  0
   53.7015   -3.9542   -8.8221 C   0  0  0  0  0  0  0  0  0  0  0  0
   54.3953   -3.8041  -10.0566 N   0  0  0  0  0  0  0  0  0  0  0  0
   55.6829   -3.9854  -10.1147 C   0  0  0  0  0  0  0  0  0  0  0  0
   56.4006   -4.4075   -8.9656 N   0  0  0  0  0  0  0  0  0  0  0  0
   56.3176   -3.8116  -11.3809 N   0  0  0  0  0  0  0  0  0  0  0  0
   57.5446   -3.0756  -11.4366 C   0  0  0  0  0  0  0  0  0  0  0  0
   58.5157   -3.7148  -12.4471 C   0  0  0  0  0  0  0  0  0  0  0  0
   57.7663   -3.7608  -13.7598 C   0  0  0  0  0  0  0  0  0  0  0  0
   56.6432   -4.7295  -13.6345 C   0  0  0  0  0  0  0  0  0  0  0  0
   55.6734   -4.4059  -12.5276 C   0  0  0  0  0  0  0  0  0  0  0  0
   57.6250   -5.0995   -9.1025 C   0  0  0  0  0  0  0  0  0  0  0  0
   58.6721   -4.9530   -8.2205 C   0  0  0  0  0  0  0  0  0  0  0  0
   59.8489   -5.6418   -8.3917 C   0  0  0  0  0  0  0  0  0  0  0  0
   60.0447   -6.5066   -9.4424 C   0  0  0  0  0  0  0  0  0  0  0  0
   58.9938   -6.6498  -10.3224 C   0  0  0  0  0  0  0  0  0  0  0  0
   57.8163   -5.9735  -10.1686 C   0  0  0  0  0  0  0  0  0  0  0  0
   56.6264   -4.4431   -6.4982 C   0  0  0  0  0  0  0  0  0  0  0  0
   56.0597   -6.7434   -6.2570 O   0  0  0  0  0  0  0  0  0  0  0  0
   56.1409   -5.6056   -5.7257 C   0  0  0  0  0  0  0  0  0  0  0  0
   55.7470   -5.4923   -4.3593 N   0  0  0  0  0  0  0  0  0  0  0  0
   55.7876   -4.5755   -3.8498 H   0  0  0  0  0  0  0  0  0  0  0  0
   55.2777   -6.6510   -3.6416 C   0  0  0  0  0  0  0  0  0  0  0  0
   56.2407   -7.1278   -2.6216 C   0  0  0  0  0  0  0  0  0  0  0  0
   56.6980   -6.2538   -1.6682 C   0  0  0  0  0  0  0  0  0  0  0  0
   57.6020   -6.6535   -0.6859 C   0  0  0  0  0  0  0  0  0  0  0  0
   58.0539   -7.9583   -0.6638 C   0  0  0  0  0  0  0  0  0  0  0  0
   57.5870   -8.8423   -1.6337 C   0  0  0  0  0  0  0  0  0  0  0  0
   56.6839   -8.4259   -2.6079 C   0  0  0  0  0  0  0  0  0  0  0  0
 24 25  2  0  0  0
 25 23  1  0  0  0
 23  1  1  0  0  0
  1  2  1  0  0  0
  2  3  2  0  0  0
  3  4  1  0  0  0
  4  5  2  0  0  0
  5  6  1  0  0  0
  6  7  2  0  0  0
  7  8  1  0  0  0
  8  9  2  0  0  0
  9 11  1  0  0  0
 11 12  1  0  0  0
 12 13  1  0  0  0
 13 14  1  0  0  0
 14 15  1  0  0  0
 15 16  1  0  0  0
  9 10  1  0  0  0
 10 17  1  0  0  0
 17 18  2  0  0  0
 18 19  1  0  0  0
 19 20  2  0  0  0
 20 21  1  0  0  0
 21 22  2  0  0  0
 25 26  1  0  0  0
 26 28  1  0  0  0
 28 29  1  0  0  0
 29 30  2  0  0  0
 30 31  1  0  0  0
 31 32  2  0  0  0
 32 33  1  0  0  0
 33 34  2  0  0  0
 10  1  1  0  0  0
 22 17  1  0  0  0
 34 29  1  0  0  0
  7  2  1  0  0  0
 16 11  1  0  0  0
 26 27  1  0  0  0
M  END
> <minimizedAffinity>
-5.20014

> <CNNscore>
0.3463134170

> <CNNaffinity>
6.5932683945

> <CNN_VS>
2.2833373547

> <CNNaffinity_variance>
0.5200020671

$$$$
[H]c1c([H])c([H])c(N2C(N3C([H])([H])C([H])([H])C([H])([H])C([H])([H])C3([H])[H])=Nc3c([H])c([H])c([H])c([H])c3C2([H])C([H])([H])C(=O)N([H])C([H])([H])c2c([H])c([H])c([H])c([H])c2[H])c([H])c1[H]


 34 38  0  0  0  0  0  0  0  0999 V2000
   56.1761   -4.1827   -8.3676 C   0  0  0  0  0  0  0  0  0  0  0  0
   57.3763   -4.8392   -8.8957 C   0  0  0  0  0  0  0  0  0  0  0  0
   57.8616   -4.6645  -10.1757 C   0  0  0  0  0  0  0  0  0  0  0  0
   59.0870   -5.2288  -10.5193 C   0  0  0  0  0  0  0  0  0  0  0  0
   59.8303   -5.9576   -9.6232 C   0  0  0  0  0  0  0  0  0  0  0  0
   59.3578   -6.1427   -8.3520 C   0  0  0  0  0  0  0  0  0  0  0  0
   58.1159   -5.5794   -7.9885 C   0  0  0  0  0  0  0  0  0  0  0  0
   57.5659   -5.9569   -6.7303 N   0  0  0  0  0  0  0  0  0  0  0  0
   56.3468   -5.6247   -6.4181 C   0  0  0  0  0  0  0  0  0  0  0  0
   55.5252   -4.9471   -7.3560 N   0  0  0  0  0  0  0  0  0  0  0  0
   55.8598   -6.0277   -5.1387 N   0  0  0  0  0  0  0  0  0  0  0  0
   55.4178   -5.0177   -4.2250 C   0  0  0  0  0  0  0  0  0  0  0  0
   54.1715   -5.4912   -3.4535 C   0  0  0  0  0  0  0  0  0  0  0  0
   54.5723   -6.7889   -2.7886 C   0  0  0  0  0  0  0  0  0  0  0  0
   54.7907   -7.8174   -3.8421 C   0  0  0  0  0  0  0  0  0  0  0  0
   55.8389   -7.4432   -4.8580 C   0  0  0  0  0  0  0  0  0  0  0  0
   54.1178   -5.0427   -7.2729 C   0  0  0  0  0  0  0  0  0  0  0  0
   53.2950   -3.9422   -7.1865 C   0  0  0  0  0  0  0  0  0  0  0  0
   51.9300   -4.0785   -7.1032 C   0  0  0  0  0  0  0  0  0  0  0  0
   51.3160   -5.3086   -7.1013 C   0  0  0  0  0  0  0  0  0  0  0  0
   52.1438   -6.4070   -7.1879 C   0  0  0  0  0  0  0  0  0  0  0  0
   53.5028   -6.2913   -7.2715 C   0  0  0  0  0  0  0  0  0  0  0  0
   55.3322   -3.3898   -9.2737 C   0  0  0  0  0  0  0  0  0  0  0  0
   54.1504   -4.8061  -10.7798 O   0  0  0  0  0  0  0  0  0  0  0  0
   55.0932   -3.9918  -10.6020 C   0  0  0  0  0  0  0  0  0  0  0  0
   55.9102   -3.6810  -11.7294 N   0  0  0  0  0  0  0  0  0  0  0  0
   56.7146   -3.0106  -11.6571 H   0  0  0  0  0  0  0  0  0  0  0  0
   55.6441   -4.2913  -13.0079 C   0  0  0  0  0  0  0  0  0  0  0  0
   56.5812   -3.8472  -14.0661 C   0  0  0  0  0  0  0  0  0  0  0  0
   56.1114   -3.6477  -15.3396 C   0  0  0  0  0  0  0  0  0  0  0  0
   56.9513   -3.2278  -16.3693 C   0  0  0  0  0  0  0  0  0  0  0  0
   58.2895   -3.0049  -16.1112 C   0  0  0  0  0  0  0  0  0  0  0  0
   58.7622   -3.2088  -14.8169 C   0  0  0  0  0  0  0  0  0  0  0  0
   57.9089   -3.6284  -13.8000 C   0  0  0  0  0  0  0  0  0  0  0  0
 24 25  2  0  0  0
 25 23  1  0  0  0
 23  1  1  0  0  0
  1  2  1  0  0  0
  2  3  2  0  0  0
  3  4  1  0  0  0
  4  5  2  0  0  0
  5  6  1  0  0  0
  6  7  2  0  0  0
  7  8  1  0  0  0
  8  9  2  0  0  0
  9 11  1  0  0  0
 11 12  1  0  0  0
 12 13  1  0  0  0
 13 14  1  0  0  0
 14 15  1  0  0  0
 15 16  1  0  0  0
  9 10  1  0  0  0
 10 17  1  0  0  0
 17 18  2  0  0  0
 18 19  1  0  0  0
 19 20  2  0  0  0
 20 21  1  0  0  0
 21 22  2  0  0  0
 25 26  1  0  0  0
 26 28  1  0  0  0
 28 29  1  0  0  0
 29 30  2  0  0  0
 30 31  1  0  0  0
 31 32  2  0  0  0
 32 33  1  0  0  0
 33 34  2  0  0  0
 10  1  1  0  0  0
 22 17  1  0  0  0
 34 29  1  0  0  0
  7  2  1  0  0  0
 16 11  1  0  0  0
 26 27  1  0  0  0
M  END
> <minimizedAffinity>
-6.35277

> <CNNscore>
0.3437710106

> <CNNaffinity>
6.5397405624

> <CNN_VS>
2.2481732368

> <CNNaffinity_variance>
0.2009449899

$$$$
[H]c1c([H])c([H])c(C([H])(N2C([H])([H])C([H])([H])N(C([H])([H])C#N)C([H])([H])C2([H])[H])C([H])([H])OC([H])([H])c2c([H])c(C(F)(F)F)c([H])c(C(F)(F)F)c2[H])c([H])c1[H]


 33 35  0  0  0  0  0  0  0  0999 V2000
   54.2911   -3.0365   -8.8175 C   0  0  0  0  0  0  0  0  0  0  0  0
   54.9124   -4.3862   -8.9455 C   0  0  0  0  0  0  0  0  0  0  0  0
   56.0733   -5.5624   -5.0749 N   0  0  0  0  0  0  0  0  0  0  0  0
   55.6146   -6.5494   -5.9839 C   0  0  0  0  0  0  0  0  0  0  0  0
   54.7386   -5.9423   -7.0763 C   0  0  0  0  0  0  0  0  0  0  0  0
   55.3903   -4.8566   -7.7091 N   0  0  0  0  0  0  0  0  0  0  0  0
   56.0472   -3.9022   -6.8871 C   0  0  0  0  0  0  0  0  0  0  0  0
   55.7672   -4.2224   -5.4433 C   0  0  0  0  0  0  0  0  0  0  0  0
   56.0761   -5.8783   -3.6957 C   0  0  0  0  0  0  0  0  0  0  0  0
   53.5912   -6.3862   -2.9286 N   0  0  0  0  0  0  0  0  0  0  0  0
   54.6963   -6.1517   -3.2631 C   0  0  0  0  0  0  0  0  0  0  0  0
   55.9079   -4.3658  -10.0464 C   0  0  0  0  0  0  0  0  0  0  0  0
   55.6229   -3.9758  -11.3362 C   0  0  0  0  0  0  0  0  0  0  0  0
   56.5703   -4.0085  -12.3415 C   0  0  0  0  0  0  0  0  0  0  0  0
   57.8543   -4.4365  -12.0996 C   0  0  0  0  0  0  0  0  0  0  0  0
   58.1606   -4.8297  -10.8094 C   0  0  0  0  0  0  0  0  0  0  0  0
   57.2007   -4.7922   -9.8140 C   0  0  0  0  0  0  0  0  0  0  0  0
   53.1102   -2.8527   -9.5323 O   0  0  0  0  0  0  0  0  0  0  0  0
   52.2693   -2.1870   -8.6043 C   0  0  0  0  0  0  0  0  0  0  0  0
   51.4690   -3.0748   -7.7845 C   0  0  0  0  0  0  0  0  0  0  0  0
   50.5633   -2.5353   -6.8444 C   0  0  0  0  0  0  0  0  0  0  0  0
   49.7787   -3.3113   -6.0472 C   0  0  0  0  0  0  0  0  0  0  0  0
   49.8580   -4.6782   -6.1480 C   0  0  0  0  0  0  0  0  0  0  0  0
   50.7348   -5.2204   -7.0575 C   0  0  0  0  0  0  0  0  0  0  0  0
   51.5459   -4.4381   -7.8828 C   0  0  0  0  0  0  0  0  0  0  0  0
   48.8220   -2.7415   -5.0514 C   0  0  0  0  0  0  0  0  0  0  0  0
   48.9188   -3.3504   -3.8469 F   0  0  0  0  0  0  0  0  0  0  0  0
   47.5616   -2.8715   -5.6175 F   0  0  0  0  0  0  0  0  0  0  0  0
   49.0738   -1.3797   -4.9913 F   0  0  0  0  0  0  0  0  0  0  0  0
   50.7726   -6.7158   -7.1341 C   0  0  0  0  0  0  0  0  0  0  0  0
   51.7918   -7.1218   -8.0056 F   0  0  0  0  0  0  0  0  0  0  0  0
   51.0792   -7.1701   -5.8777 F   0  0  0  0  0  0  0  0  0  0  0  0
   49.5928   -7.2622   -7.5944 F   0  0  0  0  0  0  0  0  0  0  0  0
 10 11  3  0  0  0
 11  9  1  0  0  0
  9  3  1  0  0  0
  3  4  1  0  0  0
  4  5  1  0  0  0
  5  6  1  0  0  0
  6  2  1  0  0  0
  2  1  1  0  0  0
  1 18  1  0  0  0
 18 19  1  0  0  0
 19 20  1  0  0  0
 20 21  2  0  0  0
 21 22  1  0  0  0
 22 26  1  0  0  0
 26 27  1  0  0  0
 26 28  1  0  0  0
 26 29  1  0  0  0
 22 23  2  0  0  0
 23 24  1  0  0  0
 24 30  1  0  0  0
 30 31  1  0  0  0
 30 32  1  0  0  0
 30 33  1  0  0  0
 24 25  2  0  0  0
  2 12  1  0  0  0
 12 13  2  0  0  0
 13 14  1  0  0  0
 14 15  2  0  0  0
 15 16  1  0  0  0
 16 17  2  0  0  0
  6  7  1  0  0  0
  7  8  1  0  0  0
  8  3  1  0  0  0
 25 20  1  0  0  0
 17 12  1  0  0  0
M  END
> <minimizedAffinity>
-9.10705

> <CNNscore>
0.4083195627

> <CNNaffinity>
7.0478677750

> <CNN_VS>
2.8777823448

> <CNNaffinity_variance>
0.1330519468

$$$$
[H]c1c([H])c([H])c(C([H])(N2C([H])([H])C([H])([H])N(C([H])([H])C#N)C([H])([H])C2([H])[H])C([H])([H])OC([H])([H])c2c([H])c(C(F)(F)F)c([H])c(C(F)(F)F)c2[H])c([H])c1[H]


 33 35  0  0  0  0  0  0  0  0999 V2000
   55.0166   -5.9727   -5.5637 C   0  0  0  0  0  0  0  0  0  0  0  0
   53.8732   -5.5592   -4.6999 C   0  0  0  0  0  0  0  0  0  0  0  0
   53.5578   -7.6287   -1.0489 N   0  0  0  0  0  0  0  0  0  0  0  0
   54.5038   -8.0698   -2.0087 C   0  0  0  0  0  0  0  0  0  0  0  0
   54.1274   -7.6170   -3.4168 C   0  0  0  0  0  0  0  0  0  0  0  0
   53.8945   -6.2214   -3.4592 N   0  0  0  0  0  0  0  0  0  0  0  0
   53.1052   -5.6453   -2.4280 C   0  0  0  0  0  0  0  0  0  0  0  0
   52.5640   -6.7435   -1.5525 C   0  0  0  0  0  0  0  0  0  0  0  0
   53.1749   -8.5315   -0.0289 C   0  0  0  0  0  0  0  0  0  0  0  0
   51.2393  -10.0989   -0.9331 N   0  0  0  0  0  0  0  0  0  0  0  0
   52.1068   -9.4064   -0.5383 C   0  0  0  0  0  0  0  0  0  0  0  0
   52.6084   -5.6849   -5.4667 C   0  0  0  0  0  0  0  0  0  0  0  0
   51.3982   -5.1799   -5.0454 C   0  0  0  0  0  0  0  0  0  0  0  0
   50.2355   -5.3526   -5.7718 C   0  0  0  0  0  0  0  0  0  0  0  0
   50.2317   -6.0437   -6.9604 C   0  0  0  0  0  0  0  0  0  0  0  0
   51.4383   -6.5560   -7.4016 C   0  0  0  0  0  0  0  0  0  0  0  0
   52.5936   -6.3756   -6.6624 C   0  0  0  0  0  0  0  0  0  0  0  0
   56.0898   -5.0860   -5.5981 O   0  0  0  0  0  0  0  0  0  0  0  0
   56.7629   -5.4375   -6.7960 C   0  0  0  0  0  0  0  0  0  0  0  0
   56.2278   -4.8056   -7.9856 C   0  0  0  0  0  0  0  0  0  0  0  0
   54.9874   -4.1327   -7.9250 C   0  0  0  0  0  0  0  0  0  0  0  0
   54.4306   -3.5144   -9.0025 C   0  0  0  0  0  0  0  0  0  0  0  0
   55.0890   -3.5355  -10.2070 C   0  0  0  0  0  0  0  0  0  0  0  0
   56.2975   -4.1864  -10.2841 C   0  0  0  0  0  0  0  0  0  0  0  0
   56.8821   -4.8250   -9.1880 C   0  0  0  0  0  0  0  0  0  0  0  0
   53.1178   -2.8043   -8.9395 C   0  0  0  0  0  0  0  0  0  0  0  0
   53.2691   -1.4659   -8.8100 F   0  0  0  0  0  0  0  0  0  0  0  0
   52.4297   -3.3708   -7.8757 F   0  0  0  0  0  0  0  0  0  0  0  0
   52.4164   -3.1619  -10.0804 F   0  0  0  0  0  0  0  0  0  0  0  0
   56.9777   -4.1689  -11.6184 C   0  0  0  0  0  0  0  0  0  0  0  0
   58.0672   -5.0500  -11.6085 F   0  0  0  0  0  0  0  0  0  0  0  0
   56.0668   -4.6266  -12.5347 F   0  0  0  0  0  0  0  0  0  0  0  0
   57.4572   -2.9223  -11.9629 F   0  0  0  0  0  0  0  0  0  0  0  0
 10 11  3  0  0  0
 11  9  1  0  0  0
  9  3  1  0  0  0
  3  4  1  0  0  0
  4  5  1  0  0  0
  5  6  1  0  0  0
  6  2  1  0  0  0
  2  1  1  0  0  0
  1 18  1  0  0  0
 18 19  1  0  0  0
 19 20  1  0  0  0
 20 21  2  0  0  0
 21 22  1  0  0  0
 22 26  1  0  0  0
 26 27  1  0  0  0
 26 28  1  0  0  0
 26 29  1  0  0  0
 22 23  2  0  0  0
 23 24  1  0  0  0
 24 30  1  0  0  0
 30 31  1  0  0  0
 30 32  1  0  0  0
 30 33  1  0  0  0
 24 25  2  0  0  0
  2 12  1  0  0  0
 12 13  2  0  0  0
 13 14  1  0  0  0
 14 15  2  0  0  0
 15 16  1  0  0  0
 16 17  2  0  0  0
  6  7  1  0  0  0
  7  8  1  0  0  0
  8  3  1  0  0  0
 25 20  1  0  0  0
 17 12  1  0  0  0
M  END
> <minimizedAffinity>
-8.81259

> <CNNscore>
0.3597085178

> <CNNaffinity>
6.6661834717

> <CNN_VS>
2.3978829384

> <CNNaffinity_variance>
0.2177919596

$$$$
[H]c1c([H])c([H])c(C([H])(N2C([H])([H])C([H])([H])N(C([H])([H])C#N)C([H])([H])C2([H])[H])C([H])([H])OC([H])([H])c2c([H])c(C(F)(F)F)c([H])c(C(F)(F)F)c2[H])c([H])c1[H]


 33 35  0  0  0  0  0  0  0  0999 V2000
   54.3184   -3.0676   -8.8843 C   0  0  0  0  0  0  0  0  0  0  0  0
   54.9532   -4.4149   -8.9632 C   0  0  0  0  0  0  0  0  0  0  0  0
   56.1133   -5.4429   -5.0505 N   0  0  0  0  0  0  0  0  0  0  0  0
   55.6631   -6.4651   -5.9242 C   0  0  0  0  0  0  0  0  0  0  0  0
   54.7855   -5.9036   -7.0395 C   0  0  0  0  0  0  0  0  0  0  0  0
   55.4314   -4.8372   -7.7098 N   0  0  0  0  0  0  0  0  0  0  0  0
   56.0803   -3.8494   -6.9214 C   0  0  0  0  0  0  0  0  0  0  0  0
   55.7992   -4.1191   -5.4676 C   0  0  0  0  0  0  0  0  0  0  0  0
   56.1152   -5.7089   -3.6608 C   0  0  0  0  0  0  0  0  0  0  0  0
   53.6314   -5.5279   -2.7557 N   0  0  0  0  0  0  0  0  0  0  0  0
   54.7370   -5.6178   -3.1528 C   0  0  0  0  0  0  0  0  0  0  0  0
   55.9521   -4.4231  -10.0612 C   0  0  0  0  0  0  0  0  0  0  0  0
   57.2642   -4.8125   -9.9067 C   0  0  0  0  0  0  0  0  0  0  0  0
   58.1725   -4.7684  -10.9469 C   0  0  0  0  0  0  0  0  0  0  0  0
   57.8062   -4.3289  -12.1972 C   0  0  0  0  0  0  0  0  0  0  0  0
   56.4917   -3.9361  -12.3728 C   0  0  0  0  0  0  0  0  0  0  0  0
   55.5944   -3.9852  -11.3211 C   0  0  0  0  0  0  0  0  0  0  0  0
   53.0846   -2.9510   -9.5194 O   0  0  0  0  0  0  0  0  0  0  0  0
   52.3139   -2.1997   -8.5959 C   0  0  0  0  0  0  0  0  0  0  0  0
   51.4491   -3.0011   -7.7530 C   0  0  0  0  0  0  0  0  0  0  0  0
   51.5107   -4.4105   -7.8237 C   0  0  0  0  0  0  0  0  0  0  0  0
   50.7310   -5.2219   -7.0575 C   0  0  0  0  0  0  0  0  0  0  0  0
   49.8417   -4.6637   -6.1729 C   0  0  0  0  0  0  0  0  0  0  0  0
   49.7682   -3.2934   -6.0914 C   0  0  0  0  0  0  0  0  0  0  0  0
   50.5614   -2.4474   -6.8700 C   0  0  0  0  0  0  0  0  0  0  0  0
   50.7943   -6.7125   -7.1331 C   0  0  0  0  0  0  0  0  0  0  0  0
   49.6352   -7.2488   -7.5803 F   0  0  0  0  0  0  0  0  0  0  0  0
   51.1268   -7.1443   -5.8568 F   0  0  0  0  0  0  0  0  0  0  0  0
   51.8804   -7.0249   -7.9358 F   0  0  0  0  0  0  0  0  0  0  0  0
   48.7900   -2.7380   -5.1025 C   0  0  0  0  0  0  0  0  0  0  0  0
   47.4857   -2.8740   -5.5959 F   0  0  0  0  0  0  0  0  0  0  0  0
   48.8982   -3.4982   -3.9670 F   0  0  0  0  0  0  0  0  0  0  0  0
   48.9938   -1.4003   -4.8355 F   0  0  0  0  0  0  0  0  0  0  0  0
 10 11  3  0  0  0
 11  9  1  0  0  0
  9  3  1  0  0  0
  3  4  1  0  0  0
  4  5  1  0  0  0
  5  6  1  0  0  0
  6  2  1  0  0  0
  2  1  1  0  0  0
  1 18  1  0  0  0
 18 19  1  0  0  0
 19 20  1  0  0  0
 20 21  2  0  0  0
 21 22  1  0  0  0
 22 26  1  0  0  0
 26 27  1  0  0  0
 26 28  1  0  0  0
 26 29  1  0  0  0
 22 23  2  0  0  0
 23 24  1  0  0  0
 24 30  1  0  0  0
 30 31  1  0  0  0
 30 32  1  0  0  0
 30 33  1  0  0  0
 24 25  2  0  0  0
  2 12  1  0  0  0
 12 13  2  0  0  0
 13 14  1  0  0  0
 14 15  2  0  0  0
 15 16  1  0  0  0
 16 17  2  0  0  0
  6  7  1  0  0  0
  7  8  1  0  0  0
  8  3  1  0  0  0
 25 20  1  0  0  0
 17 12  1  0  0  0
M  END
> <minimizedAffinity>
-9.16216

> <CNNscore>
0.3455076814

> <CNNaffinity>
7.0148444176

> <CNN_VS>
2.4236826897

> <CNNaffinity_variance>
0.1130034700

$$$$
[H]c1c([H])c([H])c(C([H])(N2C([H])([H])C([H])([H])N(C([H])([H])C#N)C([H])([H])C2([H])[H])C([H])([H])OC([H])([H])c2c([H])c(C(F)(F)F)c([H])c(C(F)(F)F)c2[H])c([H])c1[H]


 33 35  0  0  0  0  0  0  0  0999 V2000
   54.4930   -6.2601   -4.8345 C   0  0  0  0  0  0  0  0  0  0  0  0
   53.2601   -5.7402   -4.1756 C   0  0  0  0  0  0  0  0  0  0  0  0
   52.1064   -8.0677   -0.8644 N   0  0  0  0  0  0  0  0  0  0  0  0
   53.4598   -8.0975   -1.2866 C   0  0  0  0  0  0  0  0  0  0  0  0
   53.6001   -7.6893   -2.7504 C   0  0  0  0  0  0  0  0  0  0  0  0
   52.9624   -6.4500   -2.9984 N   0  0  0  0  0  0  0  0  0  0  0  0
   51.6655   -6.2469   -2.4553 C   0  0  0  0  0  0  0  0  0  0  0  0
   51.1961   -7.5251   -1.8141 C   0  0  0  0  0  0  0  0  0  0  0  0
   51.6434   -9.1207   -0.0405 C   0  0  0  0  0  0  0  0  0  0  0  0
   48.9986   -9.2124   -0.1736 N   0  0  0  0  0  0  0  0  0  0  0  0
   50.1751   -9.1815   -0.1191 C   0  0  0  0  0  0  0  0  0  0  0  0
   52.1624   -5.6722   -5.1725 C   0  0  0  0  0  0  0  0  0  0  0  0
   51.0498   -4.8711   -5.0405 C   0  0  0  0  0  0  0  0  0  0  0  0
   50.0312   -4.8665   -5.9741 C   0  0  0  0  0  0  0  0  0  0  0  0
   50.0802   -5.6693   -7.0891 C   0  0  0  0  0  0  0  0  0  0  0  0
   51.1913   -6.4790   -7.2408 C   0  0  0  0  0  0  0  0  0  0  0  0
   52.2024   -6.4731   -6.2968 C   0  0  0  0  0  0  0  0  0  0  0  0
   55.4893   -5.3153   -5.0668 O   0  0  0  0  0  0  0  0  0  0  0  0
   56.0833   -5.7606   -6.2753 C   0  0  0  0  0  0  0  0  0  0  0  0
   55.6694   -5.0185   -7.4495 C   0  0  0  0  0  0  0  0  0  0  0  0
   56.4682   -5.0457   -8.6141 C   0  0  0  0  0  0  0  0  0  0  0  0
   56.1358   -4.3763   -9.7520 C   0  0  0  0  0  0  0  0  0  0  0  0
   54.9784   -3.6387   -9.7868 C   0  0  0  0  0  0  0  0  0  0  0  0
   54.1891   -3.6007   -8.6619 C   0  0  0  0  0  0  0  0  0  0  0  0
   54.5158   -4.2822   -7.4873 C   0  0  0  0  0  0  0  0  0  0  0  0
   56.9812   -4.4031  -10.9833 C   0  0  0  0  0  0  0  0  0  0  0  0
   58.0542   -5.2160  -10.8461 F   0  0  0  0  0  0  0  0  0  0  0  0
   57.3366   -3.0843  -11.2293 F   0  0  0  0  0  0  0  0  0  0  0  0
   56.1505   -4.7749  -12.0288 F   0  0  0  0  0  0  0  0  0  0  0  0
   52.9329   -2.7907   -8.7586 C   0  0  0  0  0  0  0  0  0  0  0  0
   52.2865   -3.0586   -9.9726 F   0  0  0  0  0  0  0  0  0  0  0  0
   52.1147   -3.2035   -7.7392 F   0  0  0  0  0  0  0  0  0  0  0  0
   53.1619   -1.4318   -8.7031 F   0  0  0  0  0  0  0  0  0  0  0  0
 10 11  3  0  0  0
 11  9  1  0  0  0
  9  3  1  0  0  0
  3  4  1  0  0  0
  4  5  1  0  0  0
  5  6  1  0  0  0
  6  2  1  0  0  0
  2  1  1  0  0  0
  1 18  1  0  0  0
 18 19  1  0  0  0
 19 20  1  0  0  0
 20 21  2  0  0  0
 21 22  1  0  0  0
 22 26  1  0  0  0
 26 27  1  0  0  0
 26 28  1  0  0  0
 26 29  1  0  0  0
 22 23  2  0  0  0
 23 24  1  0  0  0
 24 30  1  0  0  0
 30 31  1  0  0  0
 30 32  1  0  0  0
 30 33  1  0  0  0
 24 25  2  0  0  0
  2 12  1  0  0  0
 12 13  2  0  0  0
 13 14  1  0  0  0
 14 15  2  0  0  0
 15 16  1  0  0  0
 16 17  2  0  0  0
  6  7  1  0  0  0
  7  8  1  0  0  0
  8  3  1  0  0  0
 25 20  1  0  0  0
 17 12  1  0  0  0
M  END
> <minimizedAffinity>
-9.07676

> <CNNscore>
0.3358300328

> <CNNaffinity>
6.7734136581

> <CNN_VS>
2.2747156620

> <CNNaffinity_variance>
0.2126564682

$$$$
[H]c1c([H])c([H])c(C([H])(N2C([H])([H])C([H])([H])N(C([H])([H])C#N)C([H])([H])C2([H])[H])C([H])([H])OC([H])([H])c2c([H])c(C(F)(F)F)c([H])c(C(F)(F)F)c2[H])c([H])c1[H]


 33 35  0  0  0  0  0  0  0  0999 V2000
   55.4612   -6.0487   -5.6754 C   0  0  0  0  0  0  0  0  0  0  0  0
   54.4969   -5.7090   -4.5896 C   0  0  0  0  0  0  0  0  0  0  0  0
   55.6435   -7.9433   -1.2124 N   0  0  0  0  0  0  0  0  0  0  0  0
   55.1568   -6.6240   -1.0300 C   0  0  0  0  0  0  0  0  0  0  0  0
   55.3190   -5.7862   -2.2954 C   0  0  0  0  0  0  0  0  0  0  0  0
   54.7568   -6.4412   -3.4172 N   0  0  0  0  0  0  0  0  0  0  0  0
   55.0341   -7.8238   -3.5905 C   0  0  0  0  0  0  0  0  0  0  0  0
   56.0261   -8.2601   -2.5460 C   0  0  0  0  0  0  0  0  0  0  0  0
   56.3871   -8.5293   -0.1609 C   0  0  0  0  0  0  0  0  0  0  0  0
   58.7658   -7.3695   -0.0287 N   0  0  0  0  0  0  0  0  0  0  0  0
   57.7038   -7.8766   -0.0823 C   0  0  0  0  0  0  0  0  0  0  0  0
   53.1118   -5.8155   -5.1125 C   0  0  0  0  0  0  0  0  0  0  0  0
   51.9827   -5.5957   -4.3548 C   0  0  0  0  0  0  0  0  0  0  0  0
   50.7096   -5.7433   -4.8709 C   0  0  0  0  0  0  0  0  0  0  0  0
   50.5076   -6.1207   -6.1775 C   0  0  0  0  0  0  0  0  0  0  0  0
   51.6294   -6.3433   -6.9553 C   0  0  0  0  0  0  0  0  0  0  0  0
   52.8976   -6.1923   -6.4236 C   0  0  0  0  0  0  0  0  0  0  0  0
   56.5385   -5.1768   -5.8113 O   0  0  0  0  0  0  0  0  0  0  0  0
   57.0411   -5.4806   -7.1022 C   0  0  0  0  0  0  0  0  0  0  0  0
   56.3389   -4.8194   -8.1841 C   0  0  0  0  0  0  0  0  0  0  0  0
   56.8930   -4.8192   -9.4834 C   0  0  0  0  0  0  0  0  0  0  0  0
   56.2841   -4.2219  -10.5445 C   0  0  0  0  0  0  0  0  0  0  0  0
   55.0798   -3.5885  -10.3622 C   0  0  0  0  0  0  0  0  0  0  0  0
   54.5262   -3.5785   -9.1039 C   0  0  0  0  0  0  0  0  0  0  0  0
   55.1379   -4.1869   -8.0054 C   0  0  0  0  0  0  0  0  0  0  0  0
   56.8705   -4.2197  -11.9184 C   0  0  0  0  0  0  0  0  0  0  0  0
   55.9814   -4.6315  -12.8516 F   0  0  0  0  0  0  0  0  0  0  0  0
   57.9938   -5.0321  -11.8537 F   0  0  0  0  0  0  0  0  0  0  0  0
   57.3414   -2.9364  -12.1484 F   0  0  0  0  0  0  0  0  0  0  0  0
   53.2068   -2.8837   -8.9639 C   0  0  0  0  0  0  0  0  0  0  0  0
   53.4059   -1.5004   -8.8629 F   0  0  0  0  0  0  0  0  0  0  0  0
   52.5037   -3.1308  -10.1143 F   0  0  0  0  0  0  0  0  0  0  0  0
   52.5030   -3.2828   -7.8468 F   0  0  0  0  0  0  0  0  0  0  0  0
 10 11  3  0  0  0
 11  9  1  0  0  0
  9  3  1  0  0  0
  3  4  1  0  0  0
  4  5  1  0  0  0
  5  6  1  0  0  0
  6  2  1  0  0  0
  2  1  1  0  0  0
  1 18  1  0  0  0
 18 19  1  0  0  0
 19 20  1  0  0  0
 20 21  2  0  0  0
 21 22  1  0  0  0
 22 26  1  0  0  0
 26 27  1  0  0  0
 26 28  1  0  0  0
 26 29  1  0  0  0
 22 23  2  0  0  0
 23 24  1  0  0  0
 24 30  1  0  0  0
 30 31  1  0  0  0
 30 32  1  0  0  0
 30 33  1  0  0  0
 24 25  2  0  0  0
  2 12  1  0  0  0
 12 13  2  0  0  0
 13 14  1  0  0  0
 14 15  2  0  0  0
 15 16  1  0  0  0
 16 17  2  0  0  0
  6  7  1  0  0  0
  7  8  1  0  0  0
  8  3  1  0  0  0
 25 20  1  0  0  0
 17 12  1  0  0  0
M  END
> <minimizedAffinity>
-8.54380

> <CNNscore>
0.3141408563

> <CNNaffinity>
6.1239385605

> <CNN_VS>
1.9237792492

> <CNNaffinity_variance>
0.4043811858

$$$$
[H]c1c([H])c([H])c(C([H])(N2C([H])([H])C([H])([H])N(C([H])([H])C#N)C([H])([H])C2([H])[H])C([H])([H])OC([H])([H])c2c([H])c(C(F)(F)F)c([H])c(C(F)(F)F)c2[H])c([H])c1[H]


 33 35  0  0  0  0  0  0  0  0999 V2000
   57.2843   -6.6825   -4.6204 C   0  0  0  0  0  0  0  0  0  0  0  0
   57.0217   -7.7583   -3.6214 C   0  0  0  0  0  0  0  0  0  0  0  0
   53.9743   -6.3187   -1.1009 N   0  0  0  0  0  0  0  0  0  0  0  0
   53.8528   -7.6199   -1.6511 C   0  0  0  0  0  0  0  0  0  0  0  0
   54.6864   -7.7725   -2.9205 C   0  0  0  0  0  0  0  0  0  0  0  0
   56.0284   -7.3797   -2.7004 N   0  0  0  0  0  0  0  0  0  0  0  0
   56.2619   -6.1731   -1.9877 C   0  0  0  0  0  0  0  0  0  0  0  0
   54.9447   -5.4912   -1.7322 C   0  0  0  0  0  0  0  0  0  0  0  0
   52.8057   -5.6952   -0.6033 C   0  0  0  0  0  0  0  0  0  0  0  0
   51.2114   -5.1286   -2.6424 N   0  0  0  0  0  0  0  0  0  0  0  0
   51.9171   -5.3713   -1.7308 C   0  0  0  0  0  0  0  0  0  0  0  0
   58.3077   -8.1988   -3.0252 C   0  0  0  0  0  0  0  0  0  0  0  0
   58.4185   -9.1967   -2.0823 C   0  0  0  0  0  0  0  0  0  0  0  0
   59.6318   -9.5502   -1.5237 C   0  0  0  0  0  0  0  0  0  0  0  0
   60.7969   -8.9160   -1.8856 C   0  0  0  0  0  0  0  0  0  0  0  0
   60.7063   -7.9128   -2.8334 C   0  0  0  0  0  0  0  0  0  0  0  0
   59.4840   -7.5697   -3.3827 C   0  0  0  0  0  0  0  0  0  0  0  0
   56.1891   -5.8836   -4.9392 O   0  0  0  0  0  0  0  0  0  0  0  0
   55.7873   -6.3749   -6.2075 C   0  0  0  0  0  0  0  0  0  0  0  0
   54.5668   -5.7808   -6.7154 C   0  0  0  0  0  0  0  0  0  0  0  0
   54.6323   -4.6189   -7.5159 C   0  0  0  0  0  0  0  0  0  0  0  0
   53.5261   -4.0135   -8.0288 C   0  0  0  0  0  0  0  0  0  0  0  0
   52.2860   -4.5413   -7.7673 C   0  0  0  0  0  0  0  0  0  0  0  0
   52.2036   -5.6718   -6.9894 C   0  0  0  0  0  0  0  0  0  0  0  0
   53.3288   -6.3049   -6.4564 C   0  0  0  0  0  0  0  0  0  0  0  0
   53.5947   -2.7835   -8.8738 C   0  0  0  0  0  0  0  0  0  0  0  0
   52.5329   -1.9690   -8.6736 F   0  0  0  0  0  0  0  0  0  0  0  0
   53.6890   -3.2278  -10.1852 F   0  0  0  0  0  0  0  0  0  0  0  0
   54.8065   -2.1727   -8.5906 F   0  0  0  0  0  0  0  0  0  0  0  0
   50.8279   -6.2115   -6.7452 C   0  0  0  0  0  0  0  0  0  0  0  0
   50.6898   -6.5697   -5.3976 F   0  0  0  0  0  0  0  0  0  0  0  0
   49.9492   -5.1929   -7.0082 F   0  0  0  0  0  0  0  0  0  0  0  0
   50.5453   -7.3298   -7.5014 F   0  0  0  0  0  0  0  0  0  0  0  0
 10 11  3  0  0  0
 11  9  1  0  0  0
  9  3  1  0  0  0
  3  4  1  0  0  0
  4  5  1  0  0  0
  5  6  1  0  0  0
  6  2  1  0  0  0
  2  1  1  0  0  0
  1 18  1  0  0  0
 18 19  1  0  0  0
 19 20  1  0  0  0
 20 21  2  0  0  0
 21 22  1  0  0  0
 22 26  1  0  0  0
 26 27  1  0  0  0
 26 28  1  0  0  0
 26 29  1  0  0  0
 22 23  2  0  0  0
 23 24  1  0  0  0
 24 30  1  0  0  0
 30 31  1  0  0  0
 30 32  1  0  0  0
 30 33  1  0  0  0
 24 25  2  0  0  0
  2 12  1  0  0  0
 12 13  2  0  0  0
 13 14  1  0  0  0
 14 15  2  0  0  0
 15 16  1  0  0  0
 16 17  2  0  0  0
  6  7  1  0  0  0
  7  8  1  0  0  0
  8  3  1  0  0  0
 25 20  1  0  0  0
 17 12  1  0  0  0
M  END
> <minimizedAffinity>
-7.75164

> <CNNscore>
0.2150082588

> <CNNaffinity>
5.9909582138

> <CNN_VS>
1.2881054878

> <CNNaffinity_variance>
0.1844260395

$$$$
[H]c1c([H])c([H])c(C([H])(N2C([H])([H])C([H])([H])N(C([H])([H])C#N)C([H])([H])C2([H])[H])C([H])([H])OC([H])([H])c2c([H])c(C(F)(F)F)c([H])c(C(F)(F)F)c2[H])c([H])c1[H]


 33 35  0  0  0  0  0  0  0  0999 V2000
   56.5722   -6.9238   -4.9312 C   0  0  0  0  0  0  0  0  0  0  0  0
   56.1283   -7.1820   -3.5310 C   0  0  0  0  0  0  0  0  0  0  0  0
   52.0314   -6.6747   -2.7123 N   0  0  0  0  0  0  0  0  0  0  0  0
   52.7037   -5.6943   -3.4854 C   0  0  0  0  0  0  0  0  0  0  0  0
   54.2078   -5.7107   -3.2273 C   0  0  0  0  0  0  0  0  0  0  0  0
   54.7394   -7.0128   -3.3876 N   0  0  0  0  0  0  0  0  0  0  0  0
   54.0330   -8.0982   -2.8034 C   0  0  0  0  0  0  0  0  0  0  0  0
   52.8851   -7.5577   -1.9936 C   0  0  0  0  0  0  0  0  0  0  0  0
   50.8012   -6.3187   -2.1107 C   0  0  0  0  0  0  0  0  0  0  0  0
   49.6347   -4.4559   -3.5906 N   0  0  0  0  0  0  0  0  0  0  0  0
   50.1444   -5.2903   -2.9333 C   0  0  0  0  0  0  0  0  0  0  0  0
   56.9658   -6.3890   -2.5966 C   0  0  0  0  0  0  0  0  0  0  0  0
   57.7867   -6.9419   -1.6387 C   0  0  0  0  0  0  0  0  0  0  0  0
   58.5212   -6.1664   -0.7621 C   0  0  0  0  0  0  0  0  0  0  0  0
   58.4663   -4.7932   -0.8047 C   0  0  0  0  0  0  0  0  0  0  0  0
   57.6494   -4.2192   -1.7619 C   0  0  0  0  0  0  0  0  0  0  0  0
   56.9195   -5.0093   -2.6318 C   0  0  0  0  0  0  0  0  0  0  0  0
   55.6674   -6.2230   -5.7246 O   0  0  0  0  0  0  0  0  0  0  0  0
   56.4639   -5.1994   -6.2985 C   0  0  0  0  0  0  0  0  0  0  0  0
   55.9603   -4.6909   -7.5588 C   0  0  0  0  0  0  0  0  0  0  0  0
   54.6674   -4.1255   -7.6208 C   0  0  0  0  0  0  0  0  0  0  0  0
   54.1357   -3.6253   -8.7699 C   0  0  0  0  0  0  0  0  0  0  0  0
   54.8736   -3.6636   -9.9270 C   0  0  0  0  0  0  0  0  0  0  0  0
   56.1340   -4.2109   -9.8850 C   0  0  0  0  0  0  0  0  0  0  0  0
   56.6938   -4.7276   -8.7142 C   0  0  0  0  0  0  0  0  0  0  0  0
   52.7676   -3.0291   -8.8366 C   0  0  0  0  0  0  0  0  0  0  0  0
   52.7821   -1.6958   -8.6062 F   0  0  0  0  0  0  0  0  0  0  0  0
   52.0042   -3.7245   -7.9094 F   0  0  0  0  0  0  0  0  0  0  0  0
   52.2499   -3.3580  -10.0797 F   0  0  0  0  0  0  0  0  0  0  0  0
   56.8992   -4.2168  -11.1725 C   0  0  0  0  0  0  0  0  0  0  0  0
   57.9842   -5.0983  -11.0770 F   0  0  0  0  0  0  0  0  0  0  0  0
   56.0487   -4.6897  -12.1379 F   0  0  0  0  0  0  0  0  0  0  0  0
   57.4022   -2.9767  -11.5066 F   0  0  0  0  0  0  0  0  0  0  0  0
 10 11  3  0  0  0
 11  9  1  0  0  0
  9  3  1  0  0  0
  3  4  1  0  0  0
  4  5  1  0  0  0
  5  6  1  0  0  0
  6  2  1  0  0  0
  2  1  1  0  0  0
  1 18  1  0  0  0
 18 19  1  0  0  0
 19 20  1  0  0  0
 20 21  2  0  0  0
 21 22  1  0  0  0
 22 26  1  0  0  0
 26 27  1  0  0  0
 26 28  1  0  0  0
 26 29  1  0  0  0
 22 23  2  0  0  0
 23 24  1  0  0  0
 24 30  1  0  0  0
 30 31  1  0  0  0
 30 32  1  0  0  0
 30 33  1  0  0  0
 24 25  2  0  0  0
  2 12  1  0  0  0
 12 13  2  0  0  0
 13 14  1  0  0  0
 14 15  2  0  0  0
 15 16  1  0  0  0
 16 17  2  0  0  0
  6  7  1  0  0  0
  7  8  1  0  0  0
  8  3  1  0  0  0
 25 20  1  0  0  0
 17 12  1  0  0  0
M  END
> <minimizedAffinity>
-8.43708

> <CNNscore>
0.1894963235

> <CNNaffinity>
5.9767713547

> <CNN_VS>
1.1325762272

> <CNNaffinity_variance>
0.3798251748

$$$$
[H]c1c([H])c([H])c(C([H])(N2C([H])([H])C([H])([H])N(C([H])([H])C#N)C([H])([H])C2([H])[H])C([H])([H])OC([H])([H])c2c([H])c(C(F)(F)F)c([H])c(C(F)(F)F)c2[H])c([H])c1[H]


 33 35  0  0  0  0  0  0  0  0999 V2000
   57.2970   -6.9550   -4.5436 C   0  0  0  0  0  0  0  0  0  0  0  0
   57.1430   -7.9660   -3.4581 C   0  0  0  0  0  0  0  0  0  0  0  0
   54.1628   -6.4910   -0.8785 N   0  0  0  0  0  0  0  0  0  0  0  0
   54.0685   -7.8273   -1.3436 C   0  0  0  0  0  0  0  0  0  0  0  0
   54.8463   -8.0257   -2.6417 C   0  0  0  0  0  0  0  0  0  0  0  0
   56.1801   -7.5696   -2.5128 N   0  0  0  0  0  0  0  0  0  0  0  0
   56.3977   -6.3135   -1.8856 C   0  0  0  0  0  0  0  0  0  0  0  0
   55.0673   -5.6676   -1.6057 C   0  0  0  0  0  0  0  0  0  0  0  0
   52.9947   -5.8830   -0.3610 C   0  0  0  0  0  0  0  0  0  0  0  0
   51.0174   -6.1562   -2.1036 N   0  0  0  0  0  0  0  0  0  0  0  0
   51.8993   -6.0452   -1.3304 C   0  0  0  0  0  0  0  0  0  0  0  0
   58.4794   -8.2986   -2.9041 C   0  0  0  0  0  0  0  0  0  0  0  0
   58.7034   -9.2890   -1.9735 C   0  0  0  0  0  0  0  0  0  0  0  0
   59.9588   -9.5409   -1.4542 C   0  0  0  0  0  0  0  0  0  0  0  0
   61.0540   -8.8074   -1.8452 C   0  0  0  0  0  0  0  0  0  0  0  0
   60.8496   -7.8100   -2.7813 C   0  0  0  0  0  0  0  0  0  0  0  0
   59.5864   -7.5693   -3.2911 C   0  0  0  0  0  0  0  0  0  0  0  0
   56.2417   -6.8865   -5.4496 O   0  0  0  0  0  0  0  0  0  0  0  0
   55.8538   -5.5235   -5.3936 C   0  0  0  0  0  0  0  0  0  0  0  0
   54.7276   -5.1908   -6.2431 C   0  0  0  0  0  0  0  0  0  0  0  0
   53.4529   -5.7304   -5.9616 C   0  0  0  0  0  0  0  0  0  0  0  0
   52.3529   -5.4553   -6.7150 C   0  0  0  0  0  0  0  0  0  0  0  0
   52.4691   -4.6196   -7.7980 C   0  0  0  0  0  0  0  0  0  0  0  0
   53.7026   -4.0858   -8.0870 C   0  0  0  0  0  0  0  0  0  0  0  0
   54.8403   -4.3578   -7.3237 C   0  0  0  0  0  0  0  0  0  0  0  0
   51.0051   -6.0273   -6.4189 C   0  0  0  0  0  0  0  0  0  0  0  0
   50.0244   -5.1014   -6.5284 F   0  0  0  0  0  0  0  0  0  0  0  0
   51.0926   -6.5661   -5.1430 F   0  0  0  0  0  0  0  0  0  0  0  0
   50.8320   -7.1032   -7.2756 F   0  0  0  0  0  0  0  0  0  0  0  0
   53.7702   -3.1722   -9.2719 C   0  0  0  0  0  0  0  0  0  0  0  0
   54.7143   -3.6521  -10.1894 F   0  0  0  0  0  0  0  0  0  0  0  0
   52.5376   -3.2062   -9.8706 F   0  0  0  0  0  0  0  0  0  0  0  0
   54.1344   -1.8840   -8.9396 F   0  0  0  0  0  0  0  0  0  0  0  0
 10 11  3  0  0  0
 11  9  1  0  0  0
  9  3  1  0  0  0
  3  4  1  0  0  0
  4  5  1  0  0  0
  5  6  1  0  0  0
  6  2  1  0  0  0
  2  1  1  0  0  0
  1 18  1  0  0  0
 18 19  1  0  0  0
 19 20  1  0  0  0
 20 21  2  0  0  0
 21 22  1  0  0  0
 22 26  1  0  0  0
 26 27  1  0  0  0
 26 28  1  0  0  0
 26 29  1  0  0  0
 22 23  2  0  0  0
 23 24  1  0  0  0
 24 30  1  0  0  0
 30 31  1  0  0  0
 30 32  1  0  0  0
 30 33  1  0  0  0
 24 25  2  0  0  0
  2 12  1  0  0  0
 12 13  2  0  0  0
 13 14  1  0  0  0
 14 15  2  0  0  0
 15 16  1  0  0  0
 16 17  2  0  0  0
  6  7  1  0  0  0
  7  8  1  0  0  0
  8  3  1  0  0  0
 25 20  1  0  0  0
 17 12  1  0  0  0
M  END
> <minimizedAffinity>
-7.28909

> <CNNscore>
0.1846745908

> <CNNaffinity>
6.0331788063

> <CNN_VS>
1.1141748428

> <CNNaffinity_variance>
0.1367068589

$$$$
[H]c1c([H])c([H])c(C([H])(N2C([H])([H])C([H])([H])N(C([H])([H])C#N)C([H])([H])C2([H])[H])C([H])([H])OC([H])([H])c2c([H])c(C(F)(F)F)c([H])c(C(F)(F)F)c2[H])c([H])c1[H]


 33 35  0  0  0  0  0  0  0  0999 V2000
   56.4419   -6.3169   -4.2536 C   0  0  0  0  0  0  0  0  0  0  0  0
   56.2461   -6.8745   -2.8843 C   0  0  0  0  0  0  0  0  0  0  0  0
   52.1671   -6.4141   -1.9560 N   0  0  0  0  0  0  0  0  0  0  0  0
   52.8563   -7.5558   -1.4742 C   0  0  0  0  0  0  0  0  0  0  0  0
   54.0906   -7.8634   -2.3175 C   0  0  0  0  0  0  0  0  0  0  0  0
   54.9180   -6.7222   -2.4471 N   0  0  0  0  0  0  0  0  0  0  0  0
   54.2981   -5.4796   -2.7475 C   0  0  0  0  0  0  0  0  0  0  0  0
   52.8322   -5.7105   -2.9989 C   0  0  0  0  0  0  0  0  0  0  0  0
   50.7533   -6.4570   -1.9927 C   0  0  0  0  0  0  0  0  0  0  0  0
   49.8468   -4.4449   -3.4592 N   0  0  0  0  0  0  0  0  0  0  0  0
   50.2601   -5.3364   -2.8094 C   0  0  0  0  0  0  0  0  0  0  0  0
   57.2822   -6.3215   -1.9765 C   0  0  0  0  0  0  0  0  0  0  0  0
   57.9568   -7.0646   -1.0332 C   0  0  0  0  0  0  0  0  0  0  0  0
   58.8874   -6.5021   -0.1807 C   0  0  0  0  0  0  0  0  0  0  0  0
   59.1863   -5.1611   -0.2338 C   0  0  0  0  0  0  0  0  0  0  0  0
   58.5211   -4.3986   -1.1767 C   0  0  0  0  0  0  0  0  0  0  0  0
   57.5913   -4.9763   -2.0225 C   0  0  0  0  0  0  0  0  0  0  0  0
   55.8438   -7.0389   -5.2832 O   0  0  0  0  0  0  0  0  0  0  0  0
   55.9382   -6.1607   -6.3928 C   0  0  0  0  0  0  0  0  0  0  0  0
   54.6666   -5.6251   -6.8366 C   0  0  0  0  0  0  0  0  0  0  0  0
   54.6353   -4.4498   -7.6194 C   0  0  0  0  0  0  0  0  0  0  0  0
   53.4770   -3.8966   -8.0730 C   0  0  0  0  0  0  0  0  0  0  0  0
   52.2792   -4.4933   -7.7662 C   0  0  0  0  0  0  0  0  0  0  0  0
   52.2911   -5.6378   -7.0046 C   0  0  0  0  0  0  0  0  0  0  0  0
   53.4707   -6.2178   -6.5322 C   0  0  0  0  0  0  0  0  0  0  0  0
   53.4431   -2.6527   -8.8994 C   0  0  0  0  0  0  0  0  0  0  0  0
   52.3609   -1.8885   -8.6241 F   0  0  0  0  0  0  0  0  0  0  0  0
   53.4794   -3.0732  -10.2214 F   0  0  0  0  0  0  0  0  0  0  0  0
   54.6420   -1.9935   -8.6764 F   0  0  0  0  0  0  0  0  0  0  0  0
   50.9579   -6.2533   -6.7093 C   0  0  0  0  0  0  0  0  0  0  0  0
   50.6771   -7.2536   -7.6494 F   0  0  0  0  0  0  0  0  0  0  0  0
   51.0571   -6.8426   -5.4757 F   0  0  0  0  0  0  0  0  0  0  0  0
   49.9224   -5.3432   -6.7521 F   0  0  0  0  0  0  0  0  0  0  0  0
 10 11  3  0  0  0
 11  9  1  0  0  0
  9  3  1  0  0  0
  3  4  1  0  0  0
  4  5  1  0  0  0
  5  6  1  0  0  0
  6  2  1  0  0  0
  2  1  1  0  0  0
  1 18  1  0  0  0
 18 19  1  0  0  0
 19 20  1  0  0  0
 20 21  2  0  0  0
 21 22  1  0  0  0
 22 26  1  0  0  0
 26 27  1  0  0  0
 26 28  1  0  0  0
 26 29  1  0  0  0
 22 23  2  0  0  0
 23 24  1  0  0  0
 24 30  1  0  0  0
 30 31  1  0  0  0
 30 32  1  0  0  0
 30 33  1  0  0  0
 24 25  2  0  0  0
  2 12  1  0  0  0
 12 13  2  0  0  0
 13 14  1  0  0  0
 14 15  2  0  0  0
 15 16  1  0  0  0
 16 17  2  0  0  0
  6  7  1  0  0  0
  7  8  1  0  0  0
  8  3  1  0  0  0
 25 20  1  0  0  0
 17 12  1  0  0  0
M  END
> <minimizedAffinity>
-8.44764

> <CNNscore>
0.1825240552

> <CNNaffinity>
6.2406077385

> <CNN_VS>
1.1390609741

> <CNNaffinity_variance>
0.2973818779

$$$$
[H]OC(=O)c1c([H])c([H])c([H])c(O[H])c1C(=O)c1c(O[H])c([H])c(C(=O)OC([H])([H])[C@]2([H])C([H])([H])C([H])([H])C([H])([H])[C@@]2([H])N([H])C(=O)c2c([H])c([H])c(O[H])c([H])c2[H])c([H])c1O[H]


 45 48  0  0  0  0  0  0  0  0999 V2000
   56.6284   -4.5047   -9.6936 C   0  0  0  0  0  0  0  0  0  0  0  0
   57.8248   -5.1427   -9.8298 C   0  0  0  0  0  0  0  0  0  0  0  0
   58.6039   -4.9919  -10.9855 C   0  0  0  0  0  0  0  0  0  0  0  0
   59.7940   -5.6770  -11.0112 O   0  0  0  0  0  0  0  0  0  0  0  0
   58.1974   -4.1961  -12.0334 C   0  0  0  0  0  0  0  0  0  0  0  0
   56.9650   -3.5445  -11.8851 C   0  0  0  0  0  0  0  0  0  0  0  0
   56.4401   -2.7110  -12.8899 O   0  0  0  0  0  0  0  0  0  0  0  0
   56.2236   -3.7105  -10.7394 C   0  0  0  0  0  0  0  0  0  0  0  0
   60.5083   -5.7174  -11.6754 H   0  0  0  0  0  0  0  0  0  0  0  0
   55.5683   -2.2607  -12.7634 H   0  0  0  0  0  0  0  0  0  0  0  0
   55.7966   -4.6524   -8.4775 C   0  0  0  0  0  0  0  0  0  0  0  0
   54.5923   -4.3823   -8.5721 O   0  0  0  0  0  0  0  0  0  0  0  0
   56.3183   -5.0557   -7.3376 O   0  0  0  0  0  0  0  0  0  0  0  0
   56.3497   -6.0787   -6.4658 C   0  0  0  0  0  0  0  0  0  0  0  0
   54.4877   -6.6871   -5.0357 C   0  0  0  0  0  0  0  0  0  0  0  0
   54.7808   -7.7493   -4.0041 C   0  0  0  0  0  0  0  0  0  0  0  0
   56.0018   -7.3488   -3.2490 C   0  0  0  0  0  0  0  0  0  0  0  0
   56.6089   -6.1503   -3.9659 C   0  0  0  0  0  0  0  0  0  0  0  0
   55.7738   -5.8576   -5.1193 C   0  0  0  0  0  0  0  0  0  0  0  0
   52.4495   -6.1366   -6.7651 O   0  0  0  0  0  0  0  0  0  0  0  0
   52.3326   -5.6384   -5.6073 C   0  0  0  0  0  0  0  0  0  0  0  0
   53.3424   -5.8783   -4.6668 N   0  0  0  0  0  0  0  0  0  0  0  0
   53.2689   -5.4718   -3.6981 H   0  0  0  0  0  0  0  0  0  0  0  0
   51.1670   -4.8502   -5.3154 C   0  0  0  0  0  0  0  0  0  0  0  0
   50.4768   -5.0306   -4.1425 C   0  0  0  0  0  0  0  0  0  0  0  0
   49.3412   -4.2714   -3.8492 C   0  0  0  0  0  0  0  0  0  0  0  0
   48.9095   -3.3291   -4.7499 C   0  0  0  0  0  0  0  0  0  0  0  0
   47.7765   -2.5594   -4.4754 O   0  0  0  0  0  0  0  0  0  0  0  0
   49.6045   -3.1493   -5.9279 C   0  0  0  0  0  0  0  0  0  0  0  0
   50.7240   -3.8926   -6.2253 C   0  0  0  0  0  0  0  0  0  0  0  0
   47.8381   -1.6821   -3.9931 H   0  0  0  0  0  0  0  0  0  0  0  0
   58.8299   -4.1009  -13.3084 C   0  0  0  0  0  0  0  0  0  0  0  0
   60.1111   -4.3874  -13.2575 O   0  0  0  0  0  0  0  0  0  0  0  0
   58.3335   -3.7713  -14.6190 C   0  0  0  0  0  0  0  0  0  0  0  0
   59.0110   -2.6792  -15.2205 C   0  0  0  0  0  0  0  0  0  0  0  0
   60.0487   -2.0619  -14.5364 O   0  0  0  0  0  0  0  0  0  0  0  0
   58.6798   -2.2094  -16.4535 C   0  0  0  0  0  0  0  0  0  0  0  0
   57.6491   -2.8415  -17.1043 C   0  0  0  0  0  0  0  0  0  0  0  0
   56.9794   -3.8872  -16.5517 C   0  0  0  0  0  0  0  0  0  0  0  0
   57.3145   -4.3868  -15.2571 C   0  0  0  0  0  0  0  0  0  0  0  0
   60.5209   -1.2899  -14.9734 H   0  0  0  0  0  0  0  0  0  0  0  0
   56.4002   -5.3452  -14.6784 C   0  0  0  0  0  0  0  0  0  0  0  0
   55.3792   -4.8851  -14.0622 O   0  0  0  0  0  0  0  0  0  0  0  0
   56.4979   -6.6911  -14.6991 O   0  0  0  0  0  0  0  0  0  0  0  0
   55.9981   -7.3458  -14.1309 H   0  0  0  0  0  0  0  0  0  0  0  0
 20 21  2  0  0  0
 21 22  1  0  0  0
 22 15  1  0  0  0
 15 16  1  0  0  0
 16 17  1  0  0  0
 17 18  1  0  0  0
 18 19  1  0  0  0
 19 14  1  0  0  0
 14 13  1  0  0  0
 13 11  1  0  0  0
 11 12  2  0  0  0
 11  1  1  0  0  0
  1  2  2  0  0  0
  2  3  1  0  0  0
  3  4  1  0  0  0
  3  5  2  0  0  0
  5 32  1  0  0  0
 32 33  2  0  0  0
 32 34  1  0  0  0
 34 35  2  0  0  0
 35 36  1  0  0  0
 35 37  1  0  0  0
 37 38  2  0  0  0
 38 39  1  0  0  0
 39 40  2  0  0  0
 40 42  1  0  0  0
 42 43  2  0  0  0
 42 44  1  0  0  0
  5  6  1  0  0  0
  6  7  1  0  0  0
  6  8  2  0  0  0
 21 24  1  0  0  0
 24 25  2  0  0  0
 25 26  1  0  0  0
 26 27  2  0  0  0
 27 28  1  0  0  0
 27 29  1  0  0  0
 29 30  2  0  0  0
 19 15  1  0  0  0
  8  1  1  0  0  0
 30 24  1  0  0  0
 40 34  1  0  0  0
 22 23  1  0  0  0
  4  9  1  0  0  0
 36 41  1  0  0  0
 44 45  1  0  0  0
  7 10  1  0  0  0
 28 31  1  0  0  0
M  END
> <minimizedAffinity>
-8.46007

> <CNNscore>
0.7436820269

> <CNNaffinity>
6.6476259232

> <CNN_VS>
4.9437198639

> <CNNaffinity_variance>
0.3243119717

$$$$
[H]OC(=O)c1c([H])c([H])c([H])c(O[H])c1C(=O)c1c(O[H])c([H])c(C(=O)OC([H])([H])[C@]2([H])C([H])([H])C([H])([H])C([H])([H])[C@@]2([H])N([H])C(=O)c2c([H])c([H])c(O[H])c([H])c2[H])c([H])c1O[H]


 45 48  0  0  0  0  0  0  0  0999 V2000
   57.5972   -5.0702   -8.9085 C   0  0  0  0  0  0  0  0  0  0  0  0
   58.4920   -5.6802   -8.0812 C   0  0  0  0  0  0  0  0  0  0  0  0
   59.7448   -6.1029   -8.5472 C   0  0  0  0  0  0  0  0  0  0  0  0
   60.5679   -6.7002   -7.6241 O   0  0  0  0  0  0  0  0  0  0  0  0
   60.1275   -5.9233   -9.8579 C   0  0  0  0  0  0  0  0  0  0  0  0
   59.2004   -5.2960  -10.7020 C   0  0  0  0  0  0  0  0  0  0  0  0
   59.4735   -5.0639  -12.0626 O   0  0  0  0  0  0  0  0  0  0  0  0
   57.9799   -4.8910  -10.2160 C   0  0  0  0  0  0  0  0  0  0  0  0
   61.4764   -7.0512   -7.6920 H   0  0  0  0  0  0  0  0  0  0  0  0
   58.8043   -4.6189  -12.6397 H   0  0  0  0  0  0  0  0  0  0  0  0
   56.2719   -4.6159   -8.4293 C   0  0  0  0  0  0  0  0  0  0  0  0
   55.6921   -3.7452   -9.0910 O   0  0  0  0  0  0  0  0  0  0  0  0
   55.7300   -5.1190   -7.3395 O   0  0  0  0  0  0  0  0  0  0  0  0
   55.9143   -6.0189   -6.3579 C   0  0  0  0  0  0  0  0  0  0  0  0
   54.0725   -6.5124   -4.8591 C   0  0  0  0  0  0  0  0  0  0  0  0
   54.3739   -7.5081   -3.7652 C   0  0  0  0  0  0  0  0  0  0  0  0
   55.6119   -7.0721   -3.0592 C   0  0  0  0  0  0  0  0  0  0  0  0
   56.2175   -5.9297   -3.8634 C   0  0  0  0  0  0  0  0  0  0  0  0
   55.3648   -5.7041   -5.0190 C   0  0  0  0  0  0  0  0  0  0  0  0
   51.9566   -6.1418   -6.5424 O   0  0  0  0  0  0  0  0  0  0  0  0
   51.8899   -5.5267   -5.4380 C   0  0  0  0  0  0  0  0  0  0  0  0
   52.9418   -5.6691   -4.5243 N   0  0  0  0  0  0  0  0  0  0  0  0
   52.9103   -5.1647   -3.6003 H   0  0  0  0  0  0  0  0  0  0  0  0
   50.7355   -4.7116   -5.1768 C   0  0  0  0  0  0  0  0  0  0  0  0
   50.3695   -3.7176   -6.0501 C   0  0  0  0  0  0  0  0  0  0  0  0
   49.2504   -2.9178   -5.8053 C   0  0  0  0  0  0  0  0  0  0  0  0
   48.5047   -3.1309   -4.6721 C   0  0  0  0  0  0  0  0  0  0  0  0
   47.3820   -2.3425   -4.4091 O   0  0  0  0  0  0  0  0  0  0  0  0
   48.8741   -4.1303   -3.7959 C   0  0  0  0  0  0  0  0  0  0  0  0
   49.9749   -4.9230   -4.0288 C   0  0  0  0  0  0  0  0  0  0  0  0
   46.4687   -2.5983   -4.7355 H   0  0  0  0  0  0  0  0  0  0  0  0
   61.3021   -6.4545  -10.4687 C   0  0  0  0  0  0  0  0  0  0  0  0
   61.6007   -5.8495  -11.5961 O   0  0  0  0  0  0  0  0  0  0  0  0
   62.2136   -7.4992  -10.0807 C   0  0  0  0  0  0  0  0  0  0  0  0
   61.6467   -8.7979  -10.1537 C   0  0  0  0  0  0  0  0  0  0  0  0
   60.3351   -8.9451  -10.5825 O   0  0  0  0  0  0  0  0  0  0  0  0
   62.3458   -9.9153   -9.8164 C   0  0  0  0  0  0  0  0  0  0  0  0
   63.6407   -9.7362   -9.3961 C   0  0  0  0  0  0  0  0  0  0  0  0
   64.2089   -8.5044   -9.3125 C   0  0  0  0  0  0  0  0  0  0  0  0
   63.4848   -7.3241   -9.6594 C   0  0  0  0  0  0  0  0  0  0  0  0
   59.9455   -9.8702  -10.6302 H   0  0  0  0  0  0  0  0  0  0  0  0
   64.1056   -6.0631   -9.3217 C   0  0  0  0  0  0  0  0  0  0  0  0
   65.0440   -5.6476  -10.0838 O   0  0  0  0  0  0  0  0  0  0  0  0
   63.8194   -5.2596   -8.2758 O   0  0  0  0  0  0  0  0  0  0  0  0
   64.3739   -4.5079   -7.9170 H   0  0  0  0  0  0  0  0  0  0  0  0
 20 21  2  0  0  0
 21 22  1  0  0  0
 22 15  1  0  0  0
 15 16  1  0  0  0
 16 17  1  0  0  0
 17 18  1  0  0  0
 18 19  1  0  0  0
 19 14  1  0  0  0
 14 13  1  0  0  0
 13 11  1  0  0  0
 11 12  2  0  0  0
 11  1  1  0  0  0
  1  2  2  0  0  0
  2  3  1  0  0  0
  3  4  1  0  0  0
  3  5  2  0  0  0
  5 32  1  0  0  0
 32 33  2  0  0  0
 32 34  1  0  0  0
 34 35  2  0  0  0
 35 36  1  0  0  0
 35 37  1  0  0  0
 37 38  2  0  0  0
 38 39  1  0  0  0
 39 40  2  0  0  0
 40 42  1  0  0  0
 42 43  2  0  0  0
 42 44  1  0  0  0
  5  6  1  0  0  0
  6  7  1  0  0  0
  6  8  2  0  0  0
 21 24  1  0  0  0
 24 25  2  0  0  0
 25 26  1  0  0  0
 26 27  2  0  0  0
 27 28  1  0  0  0
 27 29  1  0  0  0
 29 30  2  0  0  0
 19 15  1  0  0  0
  8  1  1  0  0  0
 30 24  1  0  0  0
 40 34  1  0  0  0
 22 23  1  0  0  0
  4  9  1  0  0  0
 36 41  1  0  0  0
 44 45  1  0  0  0
  7 10  1  0  0  0
 28 31  1  0  0  0
M  END
> <minimizedAffinity>
-8.99035

> <CNNscore>
0.6905933619

> <CNNaffinity>
6.3701376915

> <CNN_VS>
4.3991746902

> <CNNaffinity_variance>
0.1560353786

$$$$
[H]OC(=O)c1c([H])c([H])c([H])c(O[H])c1C(=O)c1c(O[H])c([H])c(C(=O)OC([H])([H])[C@]2([H])C([H])([H])C([H])([H])C([H])([H])[C@@]2([H])N([H])C(=O)c2c([H])c([H])c(O[H])c([H])c2[H])c([H])c1O[H]


 45 48  0  0  0  0  0  0  0  0999 V2000
   56.3426   -3.8973   -9.9706 C   0  0  0  0  0  0  0  0  0  0  0  0
   57.5355   -4.4335  -10.3537 C   0  0  0  0  0  0  0  0  0  0  0  0
   57.8892   -4.5326  -11.7066 C   0  0  0  0  0  0  0  0  0  0  0  0
   59.1178   -5.0842  -11.9758 O   0  0  0  0  0  0  0  0  0  0  0  0
   57.0505   -4.0955  -12.7076 C   0  0  0  0  0  0  0  0  0  0  0  0
   55.8251   -3.5464  -12.3044 C   0  0  0  0  0  0  0  0  0  0  0  0
   54.8818   -3.0726  -13.2347 O   0  0  0  0  0  0  0  0  0  0  0  0
   55.5064   -3.4611  -10.9699 C   0  0  0  0  0  0  0  0  0  0  0  0
   59.5933   -5.2379  -12.8145 H   0  0  0  0  0  0  0  0  0  0  0  0
   54.0235   -2.6884  -12.9274 H   0  0  0  0  0  0  0  0  0  0  0  0
   55.9572   -3.7837   -8.5454 C   0  0  0  0  0  0  0  0  0  0  0  0
   55.0904   -2.9502   -8.2521 O   0  0  0  0  0  0  0  0  0  0  0  0
   56.5160   -4.5407   -7.6240 O   0  0  0  0  0  0  0  0  0  0  0  0
   56.4129   -5.7196   -6.9860 C   0  0  0  0  0  0  0  0  0  0  0  0
   54.5519   -6.5822   -5.6918 C   0  0  0  0  0  0  0  0  0  0  0  0
   54.8600   -7.7845   -4.8326 C   0  0  0  0  0  0  0  0  0  0  0  0
   56.0637   -7.4790   -4.0086 C   0  0  0  0  0  0  0  0  0  0  0  0
   56.6493   -6.1711   -4.5238 C   0  0  0  0  0  0  0  0  0  0  0  0
   55.8188   -5.7219   -5.6293 C   0  0  0  0  0  0  0  0  0  0  0  0
   52.7244   -5.4566   -7.3774 O   0  0  0  0  0  0  0  0  0  0  0  0
   52.4877   -5.3145   -6.1420 C   0  0  0  0  0  0  0  0  0  0  0  0
   53.3843   -5.8654   -5.2177 N   0  0  0  0  0  0  0  0  0  0  0  0
   53.2102   -5.7575   -4.1847 H   0  0  0  0  0  0  0  0  0  0  0  0
   51.3080   -4.5938   -5.7493 C   0  0  0  0  0  0  0  0  0  0  0  0
   50.6677   -4.8898   -4.5716 C   0  0  0  0  0  0  0  0  0  0  0  0
   49.5191   -4.1970   -4.1807 C   0  0  0  0  0  0  0  0  0  0  0  0
   49.0237   -3.2035   -4.9888 C   0  0  0  0  0  0  0  0  0  0  0  0
   47.8766   -2.4988   -4.6160 O   0  0  0  0  0  0  0  0  0  0  0  0
   49.6686   -2.9076   -6.1719 C   0  0  0  0  0  0  0  0  0  0  0  0
   50.8005   -3.5848   -6.5650 C   0  0  0  0  0  0  0  0  0  0  0  0
   47.9267   -1.6601   -4.0681 H   0  0  0  0  0  0  0  0  0  0  0  0
   57.2407   -4.2942  -14.1073 C   0  0  0  0  0  0  0  0  0  0  0  0
   56.8334   -5.4774  -14.5077 O   0  0  0  0  0  0  0  0  0  0  0  0
   57.7708   -3.4511  -15.1470 C   0  0  0  0  0  0  0  0  0  0  0  0
   56.8598   -3.2286  -16.2118 C   0  0  0  0  0  0  0  0  0  0  0  0
   55.5969   -3.8014  -16.1582 O   0  0  0  0  0  0  0  0  0  0  0  0
   57.1792   -2.4681  -17.2938 C   0  0  0  0  0  0  0  0  0  0  0  0
   58.4360   -1.9155  -17.3170 C   0  0  0  0  0  0  0  0  0  0  0  0
   59.3310   -2.1143  -16.3135 C   0  0  0  0  0  0  0  0  0  0  0  0
   59.0094   -2.9134  -15.1751 C   0  0  0  0  0  0  0  0  0  0  0  0
   54.9608   -3.6357  -16.9184 H   0  0  0  0  0  0  0  0  0  0  0  0
   60.1015   -3.2396  -14.2861 C   0  0  0  0  0  0  0  0  0  0  0  0
   60.7817   -4.2888  -14.5514 O   0  0  0  0  0  0  0  0  0  0  0  0
   60.4933   -2.5669  -13.1836 O   0  0  0  0  0  0  0  0  0  0  0  0
   61.0971   -2.8926  -12.4551 H   0  0  0  0  0  0  0  0  0  0  0  0
 20 21  2  0  0  0
 21 22  1  0  0  0
 22 15  1  0  0  0
 15 16  1  0  0  0
 16 17  1  0  0  0
 17 18  1  0  0  0
 18 19  1  0  0  0
 19 14  1  0  0  0
 14 13  1  0  0  0
 13 11  1  0  0  0
 11 12  2  0  0  0
 11  1  1  0  0  0
  1  2  2  0  0  0
  2  3  1  0  0  0
  3  4  1  0  0  0
  3  5  2  0  0  0
  5 32  1  0  0  0
 32 33  2  0  0  0
 32 34  1  0  0  0
 34 35  2  0  0  0
 35 36  1  0  0  0
 35 37  1  0  0  0
 37 38  2  0  0  0
 38 39  1  0  0  0
 39 40  2  0  0  0
 40 42  1  0  0  0
 42 43  2  0  0  0
 42 44  1  0  0  0
  5  6  1  0  0  0
  6  7  1  0  0  0
  6  8  2  0  0  0
 21 24  1  0  0  0
 24 25  2  0  0  0
 25 26  1  0  0  0
 26 27  2  0  0  0
 27 28  1  0  0  0
 27 29  1  0  0  0
 29 30  2  0  0  0
 19 15  1  0  0  0
  8  1  1  0  0  0
 30 24  1  0  0  0
 40 34  1  0  0  0
 22 23  1  0  0  0
  4  9  1  0  0  0
 36 41  1  0  0  0
 44 45  1  0  0  0
  7 10  1  0  0  0
 28 31  1  0  0  0
M  END
> <minimizedAffinity>
-8.04762

> <CNNscore>
0.6745387316

> <CNNaffinity>
6.7749037743

> <CNN_VS>
4.5699348450

> <CNNaffinity_variance>
0.4913116395

$$$$
[H]OC(=O)c1c([H])c([H])c([H])c(O[H])c1C(=O)c1c(O[H])c([H])c(C(=O)OC([H])([H])[C@]2([H])C([H])([H])C([H])([H])C([H])([H])[C@@]2([H])N([H])C(=O)c2c([H])c([H])c(O[H])c([H])c2[H])c([H])c1O[H]


 45 48  0  0  0  0  0  0  0  0999 V2000
   57.8679   -4.9001  -10.5088 C   0  0  0  0  0  0  0  0  0  0  0  0
   58.1509   -5.3869   -9.2678 C   0  0  0  0  0  0  0  0  0  0  0  0
   59.4164   -5.9050   -8.9591 C   0  0  0  0  0  0  0  0  0  0  0  0
   59.5907   -6.3623   -7.6759 O   0  0  0  0  0  0  0  0  0  0  0  0
   60.4282   -5.9472   -9.8925 C   0  0  0  0  0  0  0  0  0  0  0  0
   60.1279   -5.4454  -11.1667 C   0  0  0  0  0  0  0  0  0  0  0  0
   61.0766   -5.4416  -12.2057 O   0  0  0  0  0  0  0  0  0  0  0  0
   58.8780   -4.9422  -11.4394 C   0  0  0  0  0  0  0  0  0  0  0  0
   60.3666   -6.7383   -7.2180 H   0  0  0  0  0  0  0  0  0  0  0  0
   60.8427   -5.0819  -13.0972 H   0  0  0  0  0  0  0  0  0  0  0  0
   56.5367   -4.3472  -10.8478 C   0  0  0  0  0  0  0  0  0  0  0  0
   56.3703   -3.9216  -11.9981 O   0  0  0  0  0  0  0  0  0  0  0  0
   55.5660   -4.3092   -9.9587 O   0  0  0  0  0  0  0  0  0  0  0  0
   54.8418   -3.4823   -9.1846 C   0  0  0  0  0  0  0  0  0  0  0  0
   53.9650   -5.0456   -7.5507 C   0  0  0  0  0  0  0  0  0  0  0  0
   54.9498   -6.0666   -7.0347 C   0  0  0  0  0  0  0  0  0  0  0  0
   56.1726   -5.3505   -6.5730 C   0  0  0  0  0  0  0  0  0  0  0  0
   56.0470   -3.8996   -7.0177 C   0  0  0  0  0  0  0  0  0  0  0  0
   54.7878   -3.7652   -7.7318 C   0  0  0  0  0  0  0  0  0  0  0  0
   51.7605   -3.5686   -8.1885 O   0  0  0  0  0  0  0  0  0  0  0  0
   51.7565   -4.0840   -7.0324 C   0  0  0  0  0  0  0  0  0  0  0  0
   52.8568   -4.8546   -6.6357 N   0  0  0  0  0  0  0  0  0  0  0  0
   52.8777   -5.2909   -5.6775 H   0  0  0  0  0  0  0  0  0  0  0  0
   50.6205   -3.8523   -6.1833 C   0  0  0  0  0  0  0  0  0  0  0  0
   49.7382   -2.8369   -6.4576 C   0  0  0  0  0  0  0  0  0  0  0  0
   48.6316   -2.6012   -5.6381 C   0  0  0  0  0  0  0  0  0  0  0  0
   48.4239   -3.3995   -4.5402 C   0  0  0  0  0  0  0  0  0  0  0  0
   47.3233   -3.1805   -3.7083 O   0  0  0  0  0  0  0  0  0  0  0  0
   49.3116   -4.4193   -4.2663 C   0  0  0  0  0  0  0  0  0  0  0  0
   50.4044   -4.6588   -5.0680 C   0  0  0  0  0  0  0  0  0  0  0  0
   46.4416   -3.6308   -3.8694 H   0  0  0  0  0  0  0  0  0  0  0  0
   61.6895   -6.5941   -9.7331 C   0  0  0  0  0  0  0  0  0  0  0  0
   62.5460   -5.8666   -9.0523 O   0  0  0  0  0  0  0  0  0  0  0  0
   62.1857   -7.8775  -10.1568 C   0  0  0  0  0  0  0  0  0  0  0  0
   61.9489   -8.9124   -9.2154 C   0  0  0  0  0  0  0  0  0  0  0  0
   61.2829   -8.6186   -8.0339 O   0  0  0  0  0  0  0  0  0  0  0  0
   62.3533  -10.1939   -9.4280 C   0  0  0  0  0  0  0  0  0  0  0  0
   63.0095  -10.4522  -10.6062 C   0  0  0  0  0  0  0  0  0  0  0  0
   63.2538   -9.4806  -11.5248 C   0  0  0  0  0  0  0  0  0  0  0  0
   62.8384   -8.1316  -11.3116 C   0  0  0  0  0  0  0  0  0  0  0  0
   61.1210   -9.3604   -7.3756 H   0  0  0  0  0  0  0  0  0  0  0  0
   63.3432   -7.1462  -12.2409 C   0  0  0  0  0  0  0  0  0  0  0  0
   63.1120   -7.3378  -13.4834 O   0  0  0  0  0  0  0  0  0  0  0  0
   64.0509   -6.0331  -11.9553 O   0  0  0  0  0  0  0  0  0  0  0  0
   64.5792   -5.4687  -12.5907 H   0  0  0  0  0  0  0  0  0  0  0  0
 20 21  2  0  0  0
 21 22  1  0  0  0
 22 15  1  0  0  0
 15 16  1  0  0  0
 16 17  1  0  0  0
 17 18  1  0  0  0
 18 19  1  0  0  0
 19 14  1  0  0  0
 14 13  1  0  0  0
 13 11  1  0  0  0
 11 12  2  0  0  0
 11  1  1  0  0  0
  1  2  2  0  0  0
  2  3  1  0  0  0
  3  4  1  0  0  0
  3  5  2  0  0  0
  5 32  1  0  0  0
 32 33  2  0  0  0
 32 34  1  0  0  0
 34 35  2  0  0  0
 35 36  1  0  0  0
 35 37  1  0  0  0
 37 38  2  0  0  0
 38 39  1  0  0  0
 39 40  2  0  0  0
 40 42  1  0  0  0
 42 43  2  0  0  0
 42 44  1  0  0  0
  5  6  1  0  0  0
  6  7  1  0  0  0
  6  8  2  0  0  0
 21 24  1  0  0  0
 24 25  2  0  0  0
 25 26  1  0  0  0
 26 27  2  0  0  0
 27 28  1  0  0  0
 27 29  1  0  0  0
 29 30  2  0  0  0
 19 15  1  0  0  0
  8  1  1  0  0  0
 30 24  1  0  0  0
 40 34  1  0  0  0
 22 23  1  0  0  0
  4  9  1  0  0  0
 36 41  1  0  0  0
 44 45  1  0  0  0
  7 10  1  0  0  0
 28 31  1  0  0  0
M  END
> <minimizedAffinity>
-8.82589

> <CNNscore>
0.5024265051

> <CNNaffinity>
6.3766717911

> <CNN_VS>
3.2038090229

> <CNNaffinity_variance>
0.1866646558

$$$$
[H]OC(=O)c1c([H])c([H])c([H])c(O[H])c1C(=O)c1c(O[H])c([H])c(C(=O)OC([H])([H])[C@]2([H])C([H])([H])C([H])([H])C([H])([H])[C@@]2([H])N([H])C(=O)c2c([H])c([H])c(O[H])c([H])c2[H])c([H])c1O[H]


 45 48  0  0  0  0  0  0  0  0999 V2000
   58.3776   -5.1539  -10.3576 C   0  0  0  0  0  0  0  0  0  0  0  0
   58.2400   -5.4280   -9.0298 C   0  0  0  0  0  0  0  0  0  0  0  0
   59.2804   -6.0132   -8.2946 C   0  0  0  0  0  0  0  0  0  0  0  0
   59.0327   -6.2389   -6.9627 O   0  0  0  0  0  0  0  0  0  0  0  0
   60.4849   -6.3380   -8.8781 C   0  0  0  0  0  0  0  0  0  0  0  0
   60.6171   -6.0535  -10.2445 C   0  0  0  0  0  0  0  0  0  0  0  0
   61.7969   -6.3464  -10.9531 O   0  0  0  0  0  0  0  0  0  0  0  0
   59.5797   -5.4780  -10.9390 C   0  0  0  0  0  0  0  0  0  0  0  0
   59.5900   -6.6044   -6.2493 H   0  0  0  0  0  0  0  0  0  0  0  0
   61.8682   -6.1363  -11.9172 H   0  0  0  0  0  0  0  0  0  0  0  0
   57.2883   -4.5334  -11.1456 C   0  0  0  0  0  0  0  0  0  0  0  0
   57.3557   -4.6165  -12.3788 O   0  0  0  0  0  0  0  0  0  0  0  0
   56.2852   -3.9158  -10.5568 O   0  0  0  0  0  0  0  0  0  0  0  0
   55.0408   -4.0894  -10.0784 C   0  0  0  0  0  0  0  0  0  0  0  0
   53.8070   -4.7125   -8.0855 C   0  0  0  0  0  0  0  0  0  0  0  0
   54.6071   -5.4252   -7.0222 C   0  0  0  0  0  0  0  0  0  0  0  0
   55.8299   -4.6228   -6.7355 C   0  0  0  0  0  0  0  0  0  0  0  0
   55.9132   -3.5260   -7.7885 C   0  0  0  0  0  0  0  0  0  0  0  0
   54.7750   -3.6831   -8.6792 C   0  0  0  0  0  0  0  0  0  0  0  0
   52.3923   -5.7902   -6.0154 O   0  0  0  0  0  0  0  0  0  0  0  0
   51.9434   -4.6989   -6.4737 C   0  0  0  0  0  0  0  0  0  0  0  0
   52.6183   -4.0883   -7.5384 N   0  0  0  0  0  0  0  0  0  0  0  0
   52.2621   -3.1817   -7.9386 H   0  0  0  0  0  0  0  0  0  0  0  0
   50.7616   -4.1401   -5.8770 C   0  0  0  0  0  0  0  0  0  0  0  0
   50.2552   -4.6584   -4.7109 C   0  0  0  0  0  0  0  0  0  0  0  0
   49.1058   -4.1244   -4.1230 C   0  0  0  0  0  0  0  0  0  0  0  0
   48.4732   -3.0631   -4.7223 C   0  0  0  0  0  0  0  0  0  0  0  0
   47.3229   -2.5146   -4.1503 O   0  0  0  0  0  0  0  0  0  0  0  0
   48.9836   -2.5438   -5.8939 C   0  0  0  0  0  0  0  0  0  0  0  0
   50.1152   -3.0633   -6.4803 C   0  0  0  0  0  0  0  0  0  0  0  0
   47.3696   -1.7660   -3.4843 H   0  0  0  0  0  0  0  0  0  0  0  0
   61.5409   -7.0763   -8.2662 C   0  0  0  0  0  0  0  0  0  0  0  0
   62.6409   -6.3693   -8.1381 O   0  0  0  0  0  0  0  0  0  0  0  0
   61.6211   -8.4208   -7.7576 C   0  0  0  0  0  0  0  0  0  0  0  0
   61.6258   -8.4882   -6.3403 C   0  0  0  0  0  0  0  0  0  0  0  0
   61.5438   -7.3155   -5.6027 O   0  0  0  0  0  0  0  0  0  0  0  0
   61.7081   -9.6691   -5.6698 C   0  0  0  0  0  0  0  0  0  0  0  0
   61.7879  -10.8112   -6.4280 C   0  0  0  0  0  0  0  0  0  0  0  0
   61.7895  -10.7772   -7.7867 C   0  0  0  0  0  0  0  0  0  0  0  0
   61.7078   -9.5444   -8.5019 C   0  0  0  0  0  0  0  0  0  0  0  0
   61.5476   -7.3768   -4.5997 H   0  0  0  0  0  0  0  0  0  0  0  0
   61.9424   -9.6080   -9.9268 C   0  0  0  0  0  0  0  0  0  0  0  0
   63.1159   -9.9337  -10.3150 O   0  0  0  0  0  0  0  0  0  0  0  0
   61.0625   -9.3511  -10.9173 O   0  0  0  0  0  0  0  0  0  0  0  0
   61.2654   -9.1856  -11.8831 H   0  0  0  0  0  0  0  0  0  0  0  0
 20 21  2  0  0  0
 21 22  1  0  0  0
 22 15  1  0  0  0
 15 16  1  0  0  0
 16 17  1  0  0  0
 17 18  1  0  0  0
 18 19  1  0  0  0
 19 14  1  0  0  0
 14 13  1  0  0  0
 13 11  1  0  0  0
 11 12  2  0  0  0
 11  1  1  0  0  0
  1  2  2  0  0  0
  2  3  1  0  0  0
  3  4  1  0  0  0
  3  5  2  0  0  0
  5 32  1  0  0  0
 32 33  2  0  0  0
 32 34  1  0  0  0
 34 35  2  0  0  0
 35 36  1  0  0  0
 35 37  1  0  0  0
 37 38  2  0  0  0
 38 39  1  0  0  0
 39 40  2  0  0  0
 40 42  1  0  0  0
 42 43  2  0  0  0
 42 44  1  0  0  0
  5  6  1  0  0  0
  6  7  1  0  0  0
  6  8  2  0  0  0
 21 24  1  0  0  0
 24 25  2  0  0  0
 25 26  1  0  0  0
 26 27  2  0  0  0
 27 28  1  0  0  0
 27 29  1  0  0  0
 29 30  2  0  0  0
 19 15  1  0  0  0
  8  1  1  0  0  0
 30 24  1  0  0  0
 40 34  1  0  0  0
 22 23  1  0  0  0
  4  9  1  0  0  0
 36 41  1  0  0  0
 44 45  1  0  0  0
  7 10  1  0  0  0
 28 31  1  0  0  0
M  END
> <minimizedAffinity>
-8.82368

> <CNNscore>
0.4306741357

> <CNNaffinity>
6.4238595963

> <CNN_VS>
2.7665901184

> <CNNaffinity_variance>
0.1490944028

$$$$
[H]OC(=O)c1c([H])c([H])c([H])c(O[H])c1C(=O)c1c(O[H])c([H])c(C(=O)OC([H])([H])[C@]2([H])C([H])([H])C([H])([H])C([H])([H])[C@@]2([H])N([H])C(=O)c2c([H])c([H])c(O[H])c([H])c2[H])c([H])c1O[H]


 45 48  0  0  0  0  0  0  0  0999 V2000
   58.4135   -5.0107  -10.7079 C   0  0  0  0  0  0  0  0  0  0  0  0
   58.4944   -5.4222   -9.4113 C   0  0  0  0  0  0  0  0  0  0  0  0
   59.6691   -5.9900   -8.8986 C   0  0  0  0  0  0  0  0  0  0  0  0
   59.6388   -6.3628   -7.5771 O   0  0  0  0  0  0  0  0  0  0  0  0
   60.7914   -6.1587   -9.6788 C   0  0  0  0  0  0  0  0  0  0  0  0
   60.6989   -5.7336  -11.0116 C   0  0  0  0  0  0  0  0  0  0  0  0
   61.7760   -5.8605  -11.9079 O   0  0  0  0  0  0  0  0  0  0  0  0
   59.5337   -5.1790  -11.4857 C   0  0  0  0  0  0  0  0  0  0  0  0
   60.3192   -6.7494   -6.9935 H   0  0  0  0  0  0  0  0  0  0  0  0
   61.6884   -5.5531  -12.8441 H   0  0  0  0  0  0  0  0  0  0  0  0
   57.1803   -4.4067  -11.2619 C   0  0  0  0  0  0  0  0  0  0  0  0
   57.0154   -4.4651  -12.4873 O   0  0  0  0  0  0  0  0  0  0  0  0
   56.2920   -3.8284  -10.4804 O   0  0  0  0  0  0  0  0  0  0  0  0
   55.0896   -3.9959   -9.9027 C   0  0  0  0  0  0  0  0  0  0  0  0
   53.9612   -4.7082   -7.8775 C   0  0  0  0  0  0  0  0  0  0  0  0
   54.7709   -5.5909   -6.9588 C   0  0  0  0  0  0  0  0  0  0  0  0
   56.0824   -4.9300   -6.7053 C   0  0  0  0  0  0  0  0  0  0  0  0
   56.1866   -3.7438   -7.6544 C   0  0  0  0  0  0  0  0  0  0  0  0
   54.9729   -3.7115   -8.4539 C   0  0  0  0  0  0  0  0  0  0  0  0
   51.6213   -5.9584   -7.2372 O   0  0  0  0  0  0  0  0  0  0  0  0
   51.7099   -4.7481   -6.8772 C   0  0  0  0  0  0  0  0  0  0  0  0
   52.8828   -4.0423   -7.1736 N   0  0  0  0  0  0  0  0  0  0  0  0
   52.9785   -3.0335   -6.8869 H   0  0  0  0  0  0  0  0  0  0  0  0
   50.6001   -4.1580   -6.1806 C   0  0  0  0  0  0  0  0  0  0  0  0
   50.2234   -4.6226   -4.9449 C   0  0  0  0  0  0  0  0  0  0  0  0
   49.1450   -4.0578   -4.2594 C   0  0  0  0  0  0  0  0  0  0  0  0
   48.4511   -3.0205   -4.8323 C   0  0  0  0  0  0  0  0  0  0  0  0
   47.3700   -2.4418   -4.1633 O   0  0  0  0  0  0  0  0  0  0  0  0
   48.8312   -2.5551   -6.0741 C   0  0  0  0  0  0  0  0  0  0  0  0
   49.8922   -3.1053   -6.7566 C   0  0  0  0  0  0  0  0  0  0  0  0
   47.4890   -1.6652   -3.5397 H   0  0  0  0  0  0  0  0  0  0  0  0
   61.9732   -6.8652   -9.3060 C   0  0  0  0  0  0  0  0  0  0  0  0
   63.0465   -6.1085   -9.3480 O   0  0  0  0  0  0  0  0  0  0  0  0
   62.2039   -8.2225   -8.8849 C   0  0  0  0  0  0  0  0  0  0  0  0
   62.2723   -9.1433   -9.9624 C   0  0  0  0  0  0  0  0  0  0  0  0
   62.1314   -8.6806  -11.2631 O   0  0  0  0  0  0  0  0  0  0  0  0
   62.4725  -10.4748   -9.7680 C   0  0  0  0  0  0  0  0  0  0  0  0
   62.6081  -10.9009   -8.4697 C   0  0  0  0  0  0  0  0  0  0  0  0
   62.5432  -10.0429   -7.4176 C   0  0  0  0  0  0  0  0  0  0  0  0
   62.3294   -8.6444   -7.6081 C   0  0  0  0  0  0  0  0  0  0  0  0
   62.1822   -9.3427  -12.0174 H   0  0  0  0  0  0  0  0  0  0  0  0
   62.0553   -7.8657   -6.4214 C   0  0  0  0  0  0  0  0  0  0  0  0
   62.9943   -7.1202   -5.9781 O   0  0  0  0  0  0  0  0  0  0  0  0
   60.9129   -7.8353   -5.7035 O   0  0  0  0  0  0  0  0  0  0  0  0
   60.7850   -7.4739   -4.7792 H   0  0  0  0  0  0  0  0  0  0  0  0
 20 21  2  0  0  0
 21 22  1  0  0  0
 22 15  1  0  0  0
 15 16  1  0  0  0
 16 17  1  0  0  0
 17 18  1  0  0  0
 18 19  1  0  0  0
 19 14  1  0  0  0
 14 13  1  0  0  0
 13 11  1  0  0  0
 11 12  2  0  0  0
 11  1  1  0  0  0
  1  2  2  0  0  0
  2  3  1  0  0  0
  3  4  1  0  0  0
  3  5  2  0  0  0
  5 32  1  0  0  0
 32 33  2  0  0  0
 32 34  1  0  0  0
 34 35  2  0  0  0
 35 36  1  0  0  0
 35 37  1  0  0  0
 37 38  2  0  0  0
 38 39  1  0  0  0
 39 40  2  0  0  0
 40 42  1  0  0  0
 42 43  2  0  0  0
 42 44  1  0  0  0
  5  6  1  0  0  0
  6  7  1  0  0  0
  6  8  2  0  0  0
 21 24  1  0  0  0
 24 25  2  0  0  0
 25 26  1  0  0  0
 26 27  2  0  0  0
 27 28  1  0  0  0
 27 29  1  0  0  0
 29 30  2  0  0  0
 19 15  1  0  0  0
  8  1  1  0  0  0
 30 24  1  0  0  0
 40 34  1  0  0  0
 22 23  1  0  0  0
  4  9  1  0  0  0
 36 41  1  0  0  0
 44 45  1  0  0  0
  7 10  1  0  0  0
 28 31  1  0  0  0
M  END
> <minimizedAffinity>
-8.86544

> <CNNscore>
0.4202940166

> <CNNaffinity>
6.2750086784

> <CNN_VS>
2.6373486519

> <CNNaffinity_variance>
0.0850660428

$$$$
[H]OC(=O)c1c([H])c([H])c([H])c(O[H])c1C(=O)c1c(O[H])c([H])c(C(=O)OC([H])([H])[C@]2([H])C([H])([H])C([H])([H])C([H])([H])[C@@]2([H])N([H])C(=O)c2c([H])c([H])c(O[H])c([H])c2[H])c([H])c1O[H]


 45 48  0  0  0  0  0  0  0  0999 V2000
   58.8610   -5.7734   -9.5889 C   0  0  0  0  0  0  0  0  0  0  0  0
   58.0434   -4.9345  -10.2852 C   0  0  0  0  0  0  0  0  0  0  0  0
   57.0077   -4.2338   -9.6515 C   0  0  0  0  0  0  0  0  0  0  0  0
   56.2506   -3.4122  -10.4504 O   0  0  0  0  0  0  0  0  0  0  0  0
   56.7685   -4.3611   -8.3012 C   0  0  0  0  0  0  0  0  0  0  0  0
   57.6137   -5.2269   -7.5931 C   0  0  0  0  0  0  0  0  0  0  0  0
   57.4638   -5.4453   -6.2112 O   0  0  0  0  0  0  0  0  0  0  0  0
   58.6220   -5.8996   -8.2416 C   0  0  0  0  0  0  0  0  0  0  0  0
   55.5051   -2.8148  -10.2495 H   0  0  0  0  0  0  0  0  0  0  0  0
   58.0723   -6.0605   -5.7317 H   0  0  0  0  0  0  0  0  0  0  0  0
   59.9607   -6.5174  -10.2446 C   0  0  0  0  0  0  0  0  0  0  0  0
   60.7242   -5.8787  -10.9803 O   0  0  0  0  0  0  0  0  0  0  0  0
   60.1203   -7.8104  -10.0527 O   0  0  0  0  0  0  0  0  0  0  0  0
   61.0448   -8.7695   -9.8704 C   0  0  0  0  0  0  0  0  0  0  0  0
   62.2421  -10.0928   -8.2281 C   0  0  0  0  0  0  0  0  0  0  0  0
   63.7209  -10.2595   -8.4810 C   0  0  0  0  0  0  0  0  0  0  0  0
   64.3158   -8.9112   -8.7034 C   0  0  0  0  0  0  0  0  0  0  0  0
   63.1665   -7.9194   -8.8228 C   0  0  0  0  0  0  0  0  0  0  0  0
   61.9258   -8.6643   -8.6846 C   0  0  0  0  0  0  0  0  0  0  0  0
   60.8607  -12.2797   -7.3576 O   0  0  0  0  0  0  0  0  0  0  0  0
   61.1954  -11.4524   -6.4598 C   0  0  0  0  0  0  0  0  0  0  0  0
   61.9060  -10.3048   -6.8338 N   0  0  0  0  0  0  0  0  0  0  0  0
   62.1927   -9.6006   -6.1051 H   0  0  0  0  0  0  0  0  0  0  0  0
   60.8288  -11.7332   -5.0989 C   0  0  0  0  0  0  0  0  0  0  0  0
   60.5262  -13.0134   -4.7064 C   0  0  0  0  0  0  0  0  0  0  0  0
   60.1667  -13.2977   -3.3866 C   0  0  0  0  0  0  0  0  0  0  0  0
   60.1159  -12.2786   -2.4676 C   0  0  0  0  0  0  0  0  0  0  0  0
   59.7589  -12.5419   -1.1430 O   0  0  0  0  0  0  0  0  0  0  0  0
   60.4203  -10.9929   -2.8641 C   0  0  0  0  0  0  0  0  0  0  0  0
   60.7755  -10.7035   -4.1619 C   0  0  0  0  0  0  0  0  0  0  0  0
   60.4433  -12.7756   -0.4480 H   0  0  0  0  0  0  0  0  0  0  0  0
   55.6525   -3.8244   -7.5932 C   0  0  0  0  0  0  0  0  0  0  0  0
   56.0057   -2.9212   -6.7068 O   0  0  0  0  0  0  0  0  0  0  0  0
   54.2365   -4.0707   -7.6772 C   0  0  0  0  0  0  0  0  0  0  0  0
   53.5390   -3.0974   -8.4384 C   0  0  0  0  0  0  0  0  0  0  0  0
   54.2448   -2.0525   -9.0179 O   0  0  0  0  0  0  0  0  0  0  0  0
   52.1922   -3.1492   -8.6240 C   0  0  0  0  0  0  0  0  0  0  0  0
   51.5228   -4.1951   -8.0379 C   0  0  0  0  0  0  0  0  0  0  0  0
   52.1636   -5.1399   -7.3003 C   0  0  0  0  0  0  0  0  0  0  0  0
   53.5755   -5.0944   -7.0946 C   0  0  0  0  0  0  0  0  0  0  0  0
   53.7392   -1.3699   -9.5550 H   0  0  0  0  0  0  0  0  0  0  0  0
   54.1155   -6.0127   -6.1176 C   0  0  0  0  0  0  0  0  0  0  0  0
   53.8159   -5.8092   -4.8917 O   0  0  0  0  0  0  0  0  0  0  0  0
   54.9206   -7.0723   -6.3419 O   0  0  0  0  0  0  0  0  0  0  0  0
   55.4636   -7.5766   -5.6694 H   0  0  0  0  0  0  0  0  0  0  0  0
 20 21  2  0  0  0
 21 22  1  0  0  0
 22 15  1  0  0  0
 15 16  1  0  0  0
 16 17  1  0  0  0
 17 18  1  0  0  0
 18 19  1  0  0  0
 19 14  1  0  0  0
 14 13  1  0  0  0
 13 11  1  0  0  0
 11 12  2  0  0  0
 11  1  1  0  0  0
  1  2  2  0  0  0
  2  3  1  0  0  0
  3  4  1  0  0  0
  3  5  2  0  0  0
  5 32  1  0  0  0
 32 33  2  0  0  0
 32 34  1  0  0  0
 34 35  2  0  0  0
 35 36  1  0  0  0
 35 37  1  0  0  0
 37 38  2  0  0  0
 38 39  1  0  0  0
 39 40  2  0  0  0
 40 42  1  0  0  0
 42 43  2  0  0  0
 42 44  1  0  0  0
  5  6  1  0  0  0
  6  7  1  0  0  0
  6  8  2  0  0  0
 21 24  1  0  0  0
 24 25  2  0  0  0
 25 26  1  0  0  0
 26 27  2  0  0  0
 27 28  1  0  0  0
 27 29  1  0  0  0
 29 30  2  0  0  0
 19 15  1  0  0  0
  8  1  1  0  0  0
 30 24  1  0  0  0
 40 34  1  0  0  0
 22 23  1  0  0  0
  4  9  1  0  0  0
 36 41  1  0  0  0
 44 45  1  0  0  0
  7 10  1  0  0  0
 28 31  1  0  0  0
M  END
> <minimizedAffinity>
-7.04565

> <CNNscore>
0.4169513583

> <CNNaffinity>
5.6924233437

> <CNN_VS>
2.3734636307

> <CNNaffinity_variance>
0.0975667983

$$$$
[H]OC(=O)c1c([H])c([H])c([H])c(O[H])c1C(=O)c1c(O[H])c([H])c(C(=O)OC([H])([H])[C@]2([H])C([H])([H])C([H])([H])C([H])([H])[C@@]2([H])N([H])C(=O)c2c([H])c([H])c(O[H])c([H])c2[H])c([H])c1O[H]


 45 48  0  0  0  0  0  0  0  0999 V2000
   57.5987   -5.0145   -9.7452 C   0  0  0  0  0  0  0  0  0  0  0  0
   57.4360   -4.8834   -8.3986 C   0  0  0  0  0  0  0  0  0  0  0  0
   56.2513   -4.3683   -7.8541 C   0  0  0  0  0  0  0  0  0  0  0  0
   56.1958   -4.2868   -6.4843 O   0  0  0  0  0  0  0  0  0  0  0  0
   55.2012   -3.9712   -8.6519 C   0  0  0  0  0  0  0  0  0  0  0  0
   55.3777   -4.1086  -10.0359 C   0  0  0  0  0  0  0  0  0  0  0  0
   54.3797   -3.7304  -10.9528 O   0  0  0  0  0  0  0  0  0  0  0  0
   56.5504   -4.6185  -10.5405 C   0  0  0  0  0  0  0  0  0  0  0  0
   55.4900   -3.9928   -5.8772 H   0  0  0  0  0  0  0  0  0  0  0  0
   54.5259   -3.8369  -11.9255 H   0  0  0  0  0  0  0  0  0  0  0  0
   58.8432   -5.5597  -10.3339 C   0  0  0  0  0  0  0  0  0  0  0  0
   59.3032   -4.9872  -11.3302 O   0  0  0  0  0  0  0  0  0  0  0  0
   59.4385   -6.6146   -9.8171 O   0  0  0  0  0  0  0  0  0  0  0  0
   60.6060   -7.2792   -9.7656 C   0  0  0  0  0  0  0  0  0  0  0  0
   61.9592   -8.6104   -8.2559 C   0  0  0  0  0  0  0  0  0  0  0  0
   63.4523   -8.4468   -8.4061 C   0  0  0  0  0  0  0  0  0  0  0  0
   63.7736   -6.9921   -8.3634 C   0  0  0  0  0  0  0  0  0  0  0  0
   62.4556   -6.2318   -8.4224 C   0  0  0  0  0  0  0  0  0  0  0  0
   61.3852   -7.2118   -8.5079 C   0  0  0  0  0  0  0  0  0  0  0  0
   61.3390  -11.2293   -7.8034 O   0  0  0  0  0  0  0  0  0  0  0  0
   61.2960  -10.4748   -6.7879 C   0  0  0  0  0  0  0  0  0  0  0  0
   61.6012   -9.1169   -6.9456 N   0  0  0  0  0  0  0  0  0  0  0  0
   61.5691   -8.4690   -6.1160 H   0  0  0  0  0  0  0  0  0  0  0  0
   60.9356  -11.0508   -5.5216 C   0  0  0  0  0  0  0  0  0  0  0  0
   60.5661  -12.3700   -5.4335 C   0  0  0  0  0  0  0  0  0  0  0  0
   60.2118  -12.9400   -4.2081 C   0  0  0  0  0  0  0  0  0  0  0  0
   60.2344  -12.1667   -3.0736 C   0  0  0  0  0  0  0  0  0  0  0  0
   59.8841  -12.7176   -1.8386 O   0  0  0  0  0  0  0  0  0  0  0  0
   60.6061  -10.8413   -3.1643 C   0  0  0  0  0  0  0  0  0  0  0  0
   60.9565  -10.2713   -4.3670 C   0  0  0  0  0  0  0  0  0  0  0  0
   60.5649  -13.1449   -1.2386 H   0  0  0  0  0  0  0  0  0  0  0  0
   54.0264   -3.2906   -8.2142 C   0  0  0  0  0  0  0  0  0  0  0  0
   54.1324   -1.9853   -8.3189 O   0  0  0  0  0  0  0  0  0  0  0  0
   52.7640   -3.7580   -7.7037 C   0  0  0  0  0  0  0  0  0  0  0  0
   51.6688   -2.9314   -8.0652 C   0  0  0  0  0  0  0  0  0  0  0  0
   51.8931   -1.8088   -8.8496 O   0  0  0  0  0  0  0  0  0  0  0  0
   50.3951   -3.1992   -7.6690 C   0  0  0  0  0  0  0  0  0  0  0  0
   50.2063   -4.3169   -6.8940 C   0  0  0  0  0  0  0  0  0  0  0  0
   51.2365   -5.1249   -6.5290 C   0  0  0  0  0  0  0  0  0  0  0  0
   52.5778   -4.8525   -6.9347 C   0  0  0  0  0  0  0  0  0  0  0  0
   51.1090   -1.2318   -9.0991 H   0  0  0  0  0  0  0  0  0  0  0  0
   53.6144   -5.6422   -6.3093 C   0  0  0  0  0  0  0  0  0  0  0  0
   53.9919   -5.2949   -5.1385 O   0  0  0  0  0  0  0  0  0  0  0  0
   54.2530   -6.7151   -6.8219 O   0  0  0  0  0  0  0  0  0  0  0  0
   55.1026   -7.1304   -6.4950 H   0  0  0  0  0  0  0  0  0  0  0  0
 20 21  2  0  0  0
 21 22  1  0  0  0
 22 15  1  0  0  0
 15 16  1  0  0  0
 16 17  1  0  0  0
 17 18  1  0  0  0
 18 19  1  0  0  0
 19 14  1  0  0  0
 14 13  1  0  0  0
 13 11  1  0  0  0
 11 12  2  0  0  0
 11  1  1  0  0  0
  1  2  2  0  0  0
  2  3  1  0  0  0
  3  4  1  0  0  0
  3  5  2  0  0  0
  5 32  1  0  0  0
 32 33  2  0  0  0
 32 34  1  0  0  0
 34 35  2  0  0  0
 35 36  1  0  0  0
 35 37  1  0  0  0
 37 38  2  0  0  0
 38 39  1  0  0  0
 39 40  2  0  0  0
 40 42  1  0  0  0
 42 43  2  0  0  0
 42 44  1  0  0  0
  5  6  1  0  0  0
  6  7  1  0  0  0
  6  8  2  0  0  0
 21 24  1  0  0  0
 24 25  2  0  0  0
 25 26  1  0  0  0
 26 27  2  0  0  0
 27 28  1  0  0  0
 27 29  1  0  0  0
 29 30  2  0  0  0
 19 15  1  0  0  0
  8  1  1  0  0  0
 30 24  1  0  0  0
 40 34  1  0  0  0
 22 23  1  0  0  0
  4  9  1  0  0  0
 36 41  1  0  0  0
 44 45  1  0  0  0
  7 10  1  0  0  0
 28 31  1  0  0  0
M  END
> <minimizedAffinity>
-9.35447

> <CNNscore>
0.4045865536

> <CNNaffinity>
5.7092981339

> <CNN_VS>
2.3099052906

> <CNNaffinity_variance>
0.1150845736

$$$$
[H]OC(=O)c1c([H])c([H])c([H])c(O[H])c1C(=O)c1c(O[H])c([H])c(C(=O)OC([H])([H])[C@]2([H])C([H])([H])C([H])([H])C([H])([H])[C@@]2([H])N([H])C(=O)c2c([H])c([H])c(O[H])c([H])c2[H])c([H])c1O[H]


 45 48  0  0  0  0  0  0  0  0999 V2000
   58.5775   -5.1022  -10.6445 C   0  0  0  0  0  0  0  0  0  0  0  0
   58.6416   -5.5296   -9.3521 C   0  0  0  0  0  0  0  0  0  0  0  0
   59.7983   -6.1345   -8.8409 C   0  0  0  0  0  0  0  0  0  0  0  0
   59.7522   -6.5205   -7.5236 O   0  0  0  0  0  0  0  0  0  0  0  0
   60.9190   -6.3252   -9.6183 C   0  0  0  0  0  0  0  0  0  0  0  0
   60.8438   -5.8834  -10.9467 C   0  0  0  0  0  0  0  0  0  0  0  0
   61.9211   -6.0298  -11.8400 O   0  0  0  0  0  0  0  0  0  0  0  0
   59.6962   -5.2924  -11.4195 C   0  0  0  0  0  0  0  0  0  0  0  0
   60.4194   -6.9317   -6.9415 H   0  0  0  0  0  0  0  0  0  0  0  0
   61.8458   -5.7100  -12.7732 H   0  0  0  0  0  0  0  0  0  0  0  0
   57.3635   -4.4590  -11.1969 C   0  0  0  0  0  0  0  0  0  0  0  0
   57.2089   -4.4886  -12.4247 O   0  0  0  0  0  0  0  0  0  0  0  0
   56.4812   -3.8768  -10.4116 O   0  0  0  0  0  0  0  0  0  0  0  0
   55.2662   -4.0249   -9.8552 C   0  0  0  0  0  0  0  0  0  0  0  0
   54.0958   -4.7614   -7.8628 C   0  0  0  0  0  0  0  0  0  0  0  0
   54.8742   -5.6831   -6.9554 C   0  0  0  0  0  0  0  0  0  0  0  0
   56.1958   -5.0568   -6.6689 C   0  0  0  0  0  0  0  0  0  0  0  0
   56.3378   -3.8505   -7.5873 C   0  0  0  0  0  0  0  0  0  0  0  0
   55.1360   -3.7730   -8.4016 C   0  0  0  0  0  0  0  0  0  0  0  0
   51.7085   -5.9647   -7.3147 O   0  0  0  0  0  0  0  0  0  0  0  0
   51.8238   -4.7710   -6.9095 C   0  0  0  0  0  0  0  0  0  0  0  0
   53.0223   -4.0897   -7.1569 N   0  0  0  0  0  0  0  0  0  0  0  0
   53.1407   -3.0949   -6.8323 H   0  0  0  0  0  0  0  0  0  0  0  0
   50.7169   -4.1738   -6.2144 C   0  0  0  0  0  0  0  0  0  0  0  0
   50.3353   -4.6364   -4.9795 C   0  0  0  0  0  0  0  0  0  0  0  0
   49.2596   -4.0647   -4.2954 C   0  0  0  0  0  0  0  0  0  0  0  0
   48.5736   -3.0226   -4.8688 C   0  0  0  0  0  0  0  0  0  0  0  0
   47.4953   -2.4370   -4.2012 O   0  0  0  0  0  0  0  0  0  0  0  0
   48.9587   -2.5591   -6.1098 C   0  0  0  0  0  0  0  0  0  0  0  0
   50.0170   -3.1161   -6.7910 C   0  0  0  0  0  0  0  0  0  0  0  0
   47.6186   -1.6615   -3.5771 H   0  0  0  0  0  0  0  0  0  0  0  0
   62.0797   -7.0674   -9.2484 C   0  0  0  0  0  0  0  0  0  0  0  0
   62.1881   -8.1961   -9.9120 O   0  0  0  0  0  0  0  0  0  0  0  0
   63.1432   -6.8089   -8.3131 C   0  0  0  0  0  0  0  0  0  0  0  0
   64.3043   -6.2604   -8.9169 C   0  0  0  0  0  0  0  0  0  0  0  0
   64.3118   -6.0200  -10.2837 O   0  0  0  0  0  0  0  0  0  0  0  0
   65.4211   -5.9580   -8.2012 C   0  0  0  0  0  0  0  0  0  0  0  0
   65.3820   -6.2075   -6.8515 C   0  0  0  0  0  0  0  0  0  0  0  0
   64.2856   -6.7357   -6.2463 C   0  0  0  0  0  0  0  0  0  0  0  0
   63.1093   -7.0612   -6.9867 C   0  0  0  0  0  0  0  0  0  0  0  0
   65.1400   -5.6309  -10.6991 H   0  0  0  0  0  0  0  0  0  0  0  0
   62.0957   -7.8187   -6.2880 C   0  0  0  0  0  0  0  0  0  0  0  0
   61.7428   -7.4017   -5.1324 O   0  0  0  0  0  0  0  0  0  0  0  0
   61.4711   -8.9391   -6.7077 O   0  0  0  0  0  0  0  0  0  0  0  0
   60.9360   -9.5799   -6.1560 H   0  0  0  0  0  0  0  0  0  0  0  0
 20 21  2  0  0  0
 21 22  1  0  0  0
 22 15  1  0  0  0
 15 16  1  0  0  0
 16 17  1  0  0  0
 17 18  1  0  0  0
 18 19  1  0  0  0
 19 14  1  0  0  0
 14 13  1  0  0  0
 13 11  1  0  0  0
 11 12  2  0  0  0
 11  1  1  0  0  0
  1  2  2  0  0  0
  2  3  1  0  0  0
  3  4  1  0  0  0
  3  5  2  0  0  0
  5 32  1  0  0  0
 32 33  2  0  0  0
 32 34  1  0  0  0
 34 35  2  0  0  0
 35 36  1  0  0  0
 35 37  1  0  0  0
 37 38  2  0  0  0
 38 39  1  0  0  0
 39 40  2  0  0  0
 40 42  1  0  0  0
 42 43  2  0  0  0
 42 44  1  0  0  0
  5  6  1  0  0  0
  6  7  1  0  0  0
  6  8  2  0  0  0
 21 24  1  0  0  0
 24 25  2  0  0  0
 25 26  1  0  0  0
 26 27  2  0  0  0
 27 28  1  0  0  0
 27 29  1  0  0  0
 29 30  2  0  0  0
 19 15  1  0  0  0
  8  1  1  0  0  0
 30 24  1  0  0  0
 40 34  1  0  0  0
 22 23  1  0  0  0
  4  9  1  0  0  0
 36 41  1  0  0  0
 44 45  1  0  0  0
  7 10  1  0  0  0
 28 31  1  0  0  0
M  END
> <minimizedAffinity>
-8.81206

> <CNNscore>
0.3663009703

> <CNNaffinity>
6.1378698349

> <CNN_VS>
2.2483077049

> <CNNaffinity_variance>
0.0641952753

$$$$
[H]OC(=O)C([H])([H])C([H])([H])c1c2c(n([H])c1C([H])=C1C(=O)N([H])c3c([H])c([H])c(S(=O)(=O)N([H])C([H])([H])[H])c([H])c31)C([H])([H])C([H])([H])C([H])([H])C2=O


 35 38  0  0  0  0  0  0  0  0999 V2000
   50.2564   -4.3452   -4.7565 C   0  0  0  0  0  0  0  0  0  0  0  0
   49.2195   -3.5721   -5.2330 C   0  0  0  0  0  0  0  0  0  0  0  0
   49.3282   -2.8858   -6.4179 C   0  0  0  0  0  0  0  0  0  0  0  0
   50.4931   -2.9399   -7.1936 C   0  0  0  0  0  0  0  0  0  0  0  0
   51.5318   -3.7102   -6.7229 C   0  0  0  0  0  0  0  0  0  0  0  0
   51.3867   -4.3931   -5.5161 C   0  0  0  0  0  0  0  0  0  0  0  0
   52.6757   -3.6618   -7.6573 C   0  0  0  0  0  0  0  0  0  0  0  0
   53.8082   -4.3024   -7.5210 C   0  0  0  0  0  0  0  0  0  0  0  0
   52.2009   -2.7882   -8.7187 C   0  0  0  0  0  0  0  0  0  0  0  0
   52.8272   -2.4424   -9.7530 O   0  0  0  0  0  0  0  0  0  0  0  0
   50.8615   -2.3510   -8.4233 N   0  0  0  0  0  0  0  0  0  0  0  0
   50.2610   -1.7237   -8.9896 H   0  0  0  0  0  0  0  0  0  0  0  0
   54.9463   -4.2703   -8.4181 C   0  0  0  0  0  0  0  0  0  0  0  0
   55.1453   -3.7417   -9.6238 N   0  0  0  0  0  0  0  0  0  0  0  0
   56.3882   -4.0009  -10.0739 C   0  0  0  0  0  0  0  0  0  0  0  0
   57.0484   -4.7396   -9.1156 C   0  0  0  0  0  0  0  0  0  0  0  0
   56.1482   -4.9051   -8.0865 C   0  0  0  0  0  0  0  0  0  0  0  0
   58.4183   -5.1399   -9.3832 C   0  0  0  0  0  0  0  0  0  0  0  0
   59.1771   -5.3113   -8.3983 O   0  0  0  0  0  0  0  0  0  0  0  0
   58.9364   -5.3485  -10.7644 C   0  0  0  0  0  0  0  0  0  0  0  0
   57.8184   -4.9891  -11.7528 C   0  0  0  0  0  0  0  0  0  0  0  0
   57.1565   -3.6766  -11.3147 C   0  0  0  0  0  0  0  0  0  0  0  0
   54.4774   -3.1886  -10.1687 H   0  0  0  0  0  0  0  0  0  0  0  0
   56.4451   -5.6349   -6.8539 C   0  0  0  0  0  0  0  0  0  0  0  0
   55.3666   -6.6102   -6.4391 C   0  0  0  0  0  0  0  0  0  0  0  0
   55.8034   -7.2288   -5.1692 C   0  0  0  0  0  0  0  0  0  0  0  0
   54.9968   -7.8254   -4.4312 O   0  0  0  0  0  0  0  0  0  0  0  0
   57.1289   -7.1444   -4.7934 O   0  0  0  0  0  0  0  0  0  0  0  0
   57.6230   -6.2722   -4.6592 H   0  0  0  0  0  0  0  0  0  0  0  0
   50.1460   -5.2335   -3.2637 S   0  0  0  0  0  0  0  0  0  0  0  0
   50.4013   -6.6792   -3.5861 O   0  0  0  0  0  0  0  0  0  0  0  0
   48.7873   -5.1246   -2.6694 O   0  0  0  0  0  0  0  0  0  0  0  0
   52.4182   -5.6856   -2.0162 C   0  0  0  0  0  0  0  0  0  0  0  0
   51.3155   -4.7466   -2.1055 N   0  0  0  0  0  0  0  0  0  0  0  0
   50.9264   -4.4883   -1.1963 H   0  0  0  0  0  0  0  0  0  0  0  0
 33 34  1  0  0  0
 34 30  1  0  0  0
 30 31  2  0  0  0
 30 32  2  0  0  0
 30  1  1  0  0  0
  1  2  2  0  0  0
  2  3  1  0  0  0
  3  4  2  0  0  0
  4  5  1  0  0  0
  5  6  2  0  0  0
  5  7  1  0  0  0
  7  8  2  0  0  0
  8 13  1  0  0  0
 13 14  1  0  0  0
 14 15  1  0  0  0
 15 16  2  0  0  0
 16 17  1  0  0  0
 17 24  1  0  0  0
 24 25  1  0  0  0
 25 26  1  0  0  0
 26 27  2  0  0  0
 26 28  1  0  0  0
 16 18  1  0  0  0
 18 19  2  0  0  0
 18 20  1  0  0  0
 20 21  1  0  0  0
 21 22  1  0  0  0
  7  9  1  0  0  0
  9 10  2  0  0  0
  9 11  1  0  0  0
  6  1  1  0  0  0
 17 13  2  0  0  0
 11  4  1  0  0  0
 22 15  1  0  0  0
 34 35  1  0  0  0
 14 23  1  0  0  0
 28 29  1  0  0  0
 11 12  1  0  0  0
M  END
> <minimizedAffinity>
-9.85946

> <CNNscore>
0.8451294899

> <CNNaffinity>
7.3272027969

> <CNN_VS>
6.1924352646

> <CNNaffinity_variance>
0.2377771437

$$$$
[H]OC(=O)C([H])([H])C([H])([H])c1c2c(n([H])c1C([H])=C1C(=O)N([H])c3c([H])c([H])c(S(=O)(=O)N([H])C([H])([H])[H])c([H])c31)C([H])([H])C([H])([H])C([H])([H])C2=O


 35 38  0  0  0  0  0  0  0  0999 V2000
   58.9371   -5.5557  -10.0015 C   0  0  0  0  0  0  0  0  0  0  0  0
   59.0214   -4.8676  -11.1930 C   0  0  0  0  0  0  0  0  0  0  0  0
   57.9554   -4.1502  -11.6786 C   0  0  0  0  0  0  0  0  0  0  0  0
   56.7386   -4.0848  -10.9882 C   0  0  0  0  0  0  0  0  0  0  0  0
   56.6485   -4.7699   -9.7980 C   0  0  0  0  0  0  0  0  0  0  0  0
   57.7503   -5.4879   -9.3353 C   0  0  0  0  0  0  0  0  0  0  0  0
   55.3084   -4.5936   -9.2006 C   0  0  0  0  0  0  0  0  0  0  0  0
   54.9033   -5.0895   -8.0598 C   0  0  0  0  0  0  0  0  0  0  0  0
   54.6271   -3.7382  -10.1594 C   0  0  0  0  0  0  0  0  0  0  0  0
   53.4484   -3.3059  -10.0860 O   0  0  0  0  0  0  0  0  0  0  0  0
   55.5137   -3.4331  -11.2517 N   0  0  0  0  0  0  0  0  0  0  0  0
   55.3143   -2.8487  -12.0845 H   0  0  0  0  0  0  0  0  0  0  0  0
   53.5960   -4.9362   -7.4528 C   0  0  0  0  0  0  0  0  0  0  0  0
   52.4869   -4.2977   -7.8198 N   0  0  0  0  0  0  0  0  0  0  0  0
   51.5171   -4.4270   -6.8939 C   0  0  0  0  0  0  0  0  0  0  0  0
   52.0090   -5.1925   -5.8585 C   0  0  0  0  0  0  0  0  0  0  0  0
   53.3028   -5.5078   -6.2099 C   0  0  0  0  0  0  0  0  0  0  0  0
   51.1324   -5.4680   -4.7342 C   0  0  0  0  0  0  0  0  0  0  0  0
   51.3253   -6.5294   -4.0928 O   0  0  0  0  0  0  0  0  0  0  0  0
   50.0347   -4.5455   -4.3297 C   0  0  0  0  0  0  0  0  0  0  0  0
   49.9893   -3.3875   -5.3363 C   0  0  0  0  0  0  0  0  0  0  0  0
   50.1076   -3.9473   -6.7593 C   0  0  0  0  0  0  0  0  0  0  0  0
   52.3378   -3.7780   -8.6897 H   0  0  0  0  0  0  0  0  0  0  0  0
   54.1962   -6.3205   -5.3842 C   0  0  0  0  0  0  0  0  0  0  0  0
   55.0124   -5.5249   -4.3906 C   0  0  0  0  0  0  0  0  0  0  0  0
   56.3763   -6.0955   -4.3908 C   0  0  0  0  0  0  0  0  0  0  0  0
   57.0553   -6.1447   -3.3479 O   0  0  0  0  0  0  0  0  0  0  0  0
   56.9083   -6.5830   -5.5675 O   0  0  0  0  0  0  0  0  0  0  0  0
   57.0276   -6.0289   -6.4051 H   0  0  0  0  0  0  0  0  0  0  0  0
   60.2726   -6.4661   -9.3555 S   0  0  0  0  0  0  0  0  0  0  0  0
   60.0512   -7.9055   -9.7274 O   0  0  0  0  0  0  0  0  0  0  0  0
   60.3227   -6.3734   -7.8724 O   0  0  0  0  0  0  0  0  0  0  0  0
   62.8952   -6.3831   -9.1576 C   0  0  0  0  0  0  0  0  0  0  0  0
   61.7871   -5.9895  -10.0079 N   0  0  0  0  0  0  0  0  0  0  0  0
   61.8295   -5.0125  -10.3053 H   0  0  0  0  0  0  0  0  0  0  0  0
 33 34  1  0  0  0
 34 30  1  0  0  0
 30 31  2  0  0  0
 30 32  2  0  0  0
 30  1  1  0  0  0
  1  2  2  0  0  0
  2  3  1  0  0  0
  3  4  2  0  0  0
  4  5  1  0  0  0
  5  6  2  0  0  0
  5  7  1  0  0  0
  7  8  2  0  0  0
  8 13  1  0  0  0
 13 14  1  0  0  0
 14 15  1  0  0  0
 15 16  2  0  0  0
 16 17  1  0  0  0
 17 24  1  0  0  0
 24 25  1  0  0  0
 25 26  1  0  0  0
 26 27  2  0  0  0
 26 28  1  0  0  0
 16 18  1  0  0  0
 18 19  2  0  0  0
 18 20  1  0  0  0
 20 21  1  0  0  0
 21 22  1  0  0  0
  7  9  1  0  0  0
  9 10  2  0  0  0
  9 11  1  0  0  0
  6  1  1  0  0  0
 17 13  2  0  0  0
 11  4  1  0  0  0
 22 15  1  0  0  0
 34 35  1  0  0  0
 14 23  1  0  0  0
 28 29  1  0  0  0
 11 12  1  0  0  0
M  END
> <minimizedAffinity>
-9.25835

> <CNNscore>
0.7031440735

> <CNNaffinity>
7.0587110519

> <CNN_VS>
4.9632906914

> <CNNaffinity_variance>
0.1962002963

$$$$
[H]OC(=O)C([H])([H])C([H])([H])c1c2c(n([H])c1C([H])=C1C(=O)N([H])c3c([H])c([H])c(S(=O)(=O)N([H])C([H])([H])[H])c([H])c31)C([H])([H])C([H])([H])C([H])([H])C2=O


 35 38  0  0  0  0  0  0  0  0999 V2000
   58.4835   -5.3767  -10.0109 C   0  0  0  0  0  0  0  0  0  0  0  0
   58.3442   -4.5505  -11.1055 C   0  0  0  0  0  0  0  0  0  0  0  0
   57.1765   -3.8652  -11.3371 C   0  0  0  0  0  0  0  0  0  0  0  0
   56.0780   -3.9736  -10.4750 C   0  0  0  0  0  0  0  0  0  0  0  0
   56.2113   -4.7971   -9.3804 C   0  0  0  0  0  0  0  0  0  0  0  0
   57.4109   -5.4776   -9.1766 C   0  0  0  0  0  0  0  0  0  0  0  0
   54.9706   -4.7944   -8.5777 C   0  0  0  0  0  0  0  0  0  0  0  0
   54.7744   -5.4488   -7.4621 C   0  0  0  0  0  0  0  0  0  0  0  0
   54.1018   -3.8880   -9.3120 C   0  0  0  0  0  0  0  0  0  0  0  0
   52.9251   -3.5585   -9.0147 O   0  0  0  0  0  0  0  0  0  0  0  0
   54.7914   -3.3913  -10.4739 N   0  0  0  0  0  0  0  0  0  0  0  0
   54.4331   -2.7312  -11.1886 H   0  0  0  0  0  0  0  0  0  0  0  0
   53.5688   -5.4674   -6.6576 C   0  0  0  0  0  0  0  0  0  0  0  0
   52.2909   -5.2006   -6.9195 N   0  0  0  0  0  0  0  0  0  0  0  0
   51.5259   -5.3373   -5.8192 C   0  0  0  0  0  0  0  0  0  0  0  0
   52.3394   -5.7156   -4.7727 C   0  0  0  0  0  0  0  0  0  0  0  0
   53.6099   -5.7958   -5.2983 C   0  0  0  0  0  0  0  0  0  0  0  0
   51.7290   -5.9245   -3.4720 C   0  0  0  0  0  0  0  0  0  0  0  0
   52.2814   -6.7405   -2.6946 O   0  0  0  0  0  0  0  0  0  0  0  0
   50.4924   -5.2123   -3.0438 C   0  0  0  0  0  0  0  0  0  0  0  0
   50.0054   -4.3533   -4.2190 C   0  0  0  0  0  0  0  0  0  0  0  0
   50.0718   -5.1769   -5.5112 C   0  0  0  0  0  0  0  0  0  0  0  0
   51.8924   -4.9389   -7.8259 H   0  0  0  0  0  0  0  0  0  0  0  0
   54.7905   -6.1738   -4.5213 C   0  0  0  0  0  0  0  0  0  0  0  0
   55.1883   -7.6251   -4.6697 C   0  0  0  0  0  0  0  0  0  0  0  0
   55.5955   -8.1043   -3.3316 C   0  0  0  0  0  0  0  0  0  0  0  0
   56.7966   -8.1796   -3.0112 O   0  0  0  0  0  0  0  0  0  0  0  0
   54.6279   -8.4755   -2.4199 O   0  0  0  0  0  0  0  0  0  0  0  0
   53.9444   -9.2021   -2.5867 H   0  0  0  0  0  0  0  0  0  0  0  0
   59.9530   -6.2511   -9.6853 S   0  0  0  0  0  0  0  0  0  0  0  0
   60.3664   -5.9186   -8.2790 O   0  0  0  0  0  0  0  0  0  0  0  0
   61.0463   -5.8304  -10.6011 O   0  0  0  0  0  0  0  0  0  0  0  0
   61.0223   -8.6553   -9.6954 C   0  0  0  0  0  0  0  0  0  0  0  0
   59.7548   -7.9536   -9.7783 N   0  0  0  0  0  0  0  0  0  0  0  0
   59.1657   -8.2679  -10.5521 H   0  0  0  0  0  0  0  0  0  0  0  0
 33 34  1  0  0  0
 34 30  1  0  0  0
 30 31  2  0  0  0
 30 32  2  0  0  0
 30  1  1  0  0  0
  1  2  2  0  0  0
  2  3  1  0  0  0
  3  4  2  0  0  0
  4  5  1  0  0  0
  5  6  2  0  0  0
  5  7  1  0  0  0
  7  8  2  0  0  0
  8 13  1  0  0  0
 13 14  1  0  0  0
 14 15  1  0  0  0
 15 16  2  0  0  0
 16 17  1  0  0  0
 17 24  1  0  0  0
 24 25  1  0  0  0
 25 26  1  0  0  0
 26 27  2  0  0  0
 26 28  1  0  0  0
 16 18  1  0  0  0
 18 19  2  0  0  0
 18 20  1  0  0  0
 20 21  1  0  0  0
 21 22  1  0  0  0
  7  9  1  0  0  0
  9 10  2  0  0  0
  9 11  1  0  0  0
  6  1  1  0  0  0
 17 13  2  0  0  0
 11  4  1  0  0  0
 22 15  1  0  0  0
 34 35  1  0  0  0
 14 23  1  0  0  0
 28 29  1  0  0  0
 11 12  1  0  0  0
M  END
> <minimizedAffinity>
-9.68889

> <CNNscore>
0.5556406975

> <CNNaffinity>
6.6974411011

> <CNN_VS>
3.7213709354

> <CNNaffinity_variance>
0.3437499404

$$$$
[H]OC(=O)C([H])([H])C([H])([H])c1c2c(n([H])c1C([H])=C1C(=O)N([H])c3c([H])c([H])c(S(=O)(=O)N([H])C([H])([H])[H])c([H])c31)C([H])([H])C([H])([H])C([H])([H])C2=O


 35 38  0  0  0  0  0  0  0  0999 V2000
   58.4781   -5.3546   -9.9722 C   0  0  0  0  0  0  0  0  0  0  0  0
   58.2791   -4.4879  -11.0254 C   0  0  0  0  0  0  0  0  0  0  0  0
   57.0964   -3.8052  -11.1729 C   0  0  0  0  0  0  0  0  0  0  0  0
   56.0423   -3.9574  -10.2633 C   0  0  0  0  0  0  0  0  0  0  0  0
   56.2351   -4.8214   -9.2097 C   0  0  0  0  0  0  0  0  0  0  0  0
   57.4484   -5.4980   -9.0913 C   0  0  0  0  0  0  0  0  0  0  0  0
   55.0352   -4.8616   -8.3481 C   0  0  0  0  0  0  0  0  0  0  0  0
   54.8989   -5.5608   -7.2508 C   0  0  0  0  0  0  0  0  0  0  0  0
   54.1248   -3.9356   -9.0031 C   0  0  0  0  0  0  0  0  0  0  0  0
   52.9616   -3.6291   -8.6362 O   0  0  0  0  0  0  0  0  0  0  0  0
   54.7529   -3.3877  -10.1768 N   0  0  0  0  0  0  0  0  0  0  0  0
   54.3551   -2.7037  -10.8467 H   0  0  0  0  0  0  0  0  0  0  0  0
   53.7342   -5.6220   -6.3901 C   0  0  0  0  0  0  0  0  0  0  0  0
   52.4292   -5.4706   -6.6057 N   0  0  0  0  0  0  0  0  0  0  0  0
   51.7254   -5.5973   -5.4641 C   0  0  0  0  0  0  0  0  0  0  0  0
   52.6107   -5.8467   -4.4374 C   0  0  0  0  0  0  0  0  0  0  0  0
   53.8597   -5.8617   -5.0174 C   0  0  0  0  0  0  0  0  0  0  0  0
   52.0753   -6.0210   -3.0990 C   0  0  0  0  0  0  0  0  0  0  0  0
   52.7237   -6.7427   -2.3027 O   0  0  0  0  0  0  0  0  0  0  0  0
   50.8056   -5.3807   -2.6546 C   0  0  0  0  0  0  0  0  0  0  0  0
   50.2019   -4.6357   -3.8532 C   0  0  0  0  0  0  0  0  0  0  0  0
   50.2778   -5.5301   -5.0969 C   0  0  0  0  0  0  0  0  0  0  0  0
   51.9725   -5.2968   -7.5058 H   0  0  0  0  0  0  0  0  0  0  0  0
   55.0989   -6.0992   -4.2769 C   0  0  0  0  0  0  0  0  0  0  0  0
   55.7005   -4.8543   -3.6648 C   0  0  0  0  0  0  0  0  0  0  0  0
   55.8327   -5.1025   -2.2133 C   0  0  0  0  0  0  0  0  0  0  0  0
   56.8566   -5.6300   -1.7396 O   0  0  0  0  0  0  0  0  0  0  0  0
   54.8034   -4.7437   -1.3666 O   0  0  0  0  0  0  0  0  0  0  0  0
   53.8584   -5.0953   -1.4463 H   0  0  0  0  0  0  0  0  0  0  0  0
   59.9683   -6.2272   -9.7531 S   0  0  0  0  0  0  0  0  0  0  0  0
   60.5059   -5.8567   -8.3992 O   0  0  0  0  0  0  0  0  0  0  0  0
   60.9770   -5.8387  -10.7741 O   0  0  0  0  0  0  0  0  0  0  0  0
   61.0258   -8.6365   -9.7737 C   0  0  0  0  0  0  0  0  0  0  0  0
   59.7580   -7.9305   -9.7788 N   0  0  0  0  0  0  0  0  0  0  0  0
   59.1091   -8.2646  -10.4944 H   0  0  0  0  0  0  0  0  0  0  0  0
 33 34  1  0  0  0
 34 30  1  0  0  0
 30 31  2  0  0  0
 30 32  2  0  0  0
 30  1  1  0  0  0
  1  2  2  0  0  0
  2  3  1  0  0  0
  3  4  2  0  0  0
  4  5  1  0  0  0
  5  6  2  0  0  0
  5  7  1  0  0  0
  7  8  2  0  0  0
  8 13  1  0  0  0
 13 14  1  0  0  0
 14 15  1  0  0  0
 15 16  2  0  0  0
 16 17  1  0  0  0
 17 24  1  0  0  0
 24 25  1  0  0  0
 25 26  1  0  0  0
 26 27  2  0  0  0
 26 28  1  0  0  0
 16 18  1  0  0  0
 18 19  2  0  0  0
 18 20  1  0  0  0
 20 21  1  0  0  0
 21 22  1  0  0  0
  7  9  1  0  0  0
  9 10  2  0  0  0
  9 11  1  0  0  0
  6  1  1  0  0  0
 17 13  2  0  0  0
 11  4  1  0  0  0
 22 15  1  0  0  0
 34 35  1  0  0  0
 14 23  1  0  0  0
 28 29  1  0  0  0
 11 12  1  0  0  0
M  END
> <minimizedAffinity>
-9.61739

> <CNNscore>
0.4809274673

> <CNNaffinity>
6.7843828201

> <CNN_VS>
3.2627961636

> <CNNaffinity_variance>
0.2367598563

$$$$
[H]OC(=O)C([H])([H])C([H])([H])c1c2c(n([H])c1C([H])=C1C(=O)N([H])c3c([H])c([H])c(S(=O)(=O)N([H])C([H])([H])[H])c([H])c31)C([H])([H])C([H])([H])C([H])([H])C2=O


 35 38  0  0  0  0  0  0  0  0999 V2000
   62.6414   -9.3086   -3.9038 C   0  0  0  0  0  0  0  0  0  0  0  0
   63.1613   -8.3831   -3.0245 C   0  0  0  0  0  0  0  0  0  0  0  0
   63.8034   -7.2551   -3.4742 C   0  0  0  0  0  0  0  0  0  0  0  0
   63.9586   -6.9943   -4.8415 C   0  0  0  0  0  0  0  0  0  0  0  0
   63.4416   -7.9149   -5.7242 C   0  0  0  0  0  0  0  0  0  0  0  0
   62.7962   -9.0486   -5.2324 C   0  0  0  0  0  0  0  0  0  0  0  0
   63.6857   -7.4883   -7.1178 C   0  0  0  0  0  0  0  0  0  0  0  0
   63.3005   -8.1222   -8.1954 C   0  0  0  0  0  0  0  0  0  0  0  0
   64.3952   -6.2285   -6.9601 C   0  0  0  0  0  0  0  0  0  0  0  0
   64.8184   -5.4769   -7.8754 O   0  0  0  0  0  0  0  0  0  0  0  0
   64.5574   -5.9360   -5.5599 N   0  0  0  0  0  0  0  0  0  0  0  0
   65.0214   -5.1120   -5.1350 H   0  0  0  0  0  0  0  0  0  0  0  0
   63.5292   -7.7296   -9.5718 C   0  0  0  0  0  0  0  0  0  0  0  0
   63.6345   -6.5501  -10.1805 N   0  0  0  0  0  0  0  0  0  0  0  0
   63.8264   -6.6975  -11.5056 C   0  0  0  0  0  0  0  0  0  0  0  0
   63.8506   -8.0459  -11.7904 C   0  0  0  0  0  0  0  0  0  0  0  0
   63.6656   -8.6851  -10.5846 C   0  0  0  0  0  0  0  0  0  0  0  0
   64.0473   -8.4506  -13.1709 C   0  0  0  0  0  0  0  0  0  0  0  0
   64.5913   -9.5624  -13.3792 O   0  0  0  0  0  0  0  0  0  0  0  0
   63.6300   -7.6014  -14.3218 C   0  0  0  0  0  0  0  0  0  0  0  0
   63.0770   -6.2821  -13.7654 C   0  0  0  0  0  0  0  0  0  0  0  0
   64.0088   -5.7669  -12.6614 C   0  0  0  0  0  0  0  0  0  0  0  0
   63.5981   -5.6268   -9.7389 H   0  0  0  0  0  0  0  0  0  0  0  0
   63.6282  -10.1395  -10.4308 C   0  0  0  0  0  0  0  0  0  0  0  0
   62.2527  -10.7432  -10.6033 C   0  0  0  0  0  0  0  0  0  0  0  0
   62.2923  -12.0955  -10.0068 C   0  0  0  0  0  0  0  0  0  0  0  0
   63.2965  -12.4997   -9.3909 O   0  0  0  0  0  0  0  0  0  0  0  0
   61.1974  -12.9262  -10.1342 O   0  0  0  0  0  0  0  0  0  0  0  0
   60.8090  -13.2159  -11.0219 H   0  0  0  0  0  0  0  0  0  0  0  0
   61.8149  -10.7427   -3.3652 S   0  0  0  0  0  0  0  0  0  0  0  0
   60.4909  -10.7865   -4.0755 O   0  0  0  0  0  0  0  0  0  0  0  0
   61.5542  -10.6988   -1.9020 O   0  0  0  0  0  0  0  0  0  0  0  0
   62.1496  -12.8089   -4.9597 C   0  0  0  0  0  0  0  0  0  0  0  0
   62.6578  -12.1873   -3.7510 N   0  0  0  0  0  0  0  0  0  0  0  0
   62.7578  -12.8386   -2.9696 H   0  0  0  0  0  0  0  0  0  0  0  0
 33 34  1  0  0  0
 34 30  1  0  0  0
 30 31  2  0  0  0
 30 32  2  0  0  0
 30  1  1  0  0  0
  1  2  2  0  0  0
  2  3  1  0  0  0
  3  4  2  0  0  0
  4  5  1  0  0  0
  5  6  2  0  0  0
  5  7  1  0  0  0
  7  8  2  0  0  0
  8 13  1  0  0  0
 13 14  1  0  0  0
 14 15  1  0  0  0
 15 16  2  0  0  0
 16 17  1  0  0  0
 17 24  1  0  0  0
 24 25  1  0  0  0
 25 26  1  0  0  0
 26 27  2  0  0  0
 26 28  1  0  0  0
 16 18  1  0  0  0
 18 19  2  0  0  0
 18 20  1  0  0  0
 20 21  1  0  0  0
 21 22  1  0  0  0
  7  9  1  0  0  0
  9 10  2  0  0  0
  9 11  1  0  0  0
  6  1  1  0  0  0
 17 13  2  0  0  0
 11  4  1  0  0  0
 22 15  1  0  0  0
 34 35  1  0  0  0
 14 23  1  0  0  0
 28 29  1  0  0  0
 11 12  1  0  0  0
M  END
> <minimizedAffinity>
-3.08209

> <CNNscore>
0.4764442444

> <CNNaffinity>
5.2202219963

> <CNN_VS>
2.4871447086

> <CNNaffinity_variance>
0.6373442411

$$$$
[H]OC(=O)C([H])([H])C([H])([H])c1c2c(n([H])c1C([H])=C1C(=O)N([H])c3c([H])c([H])c(S(=O)(=O)N([H])C([H])([H])[H])c([H])c31)C([H])([H])C([H])([H])C([H])([H])C2=O


 35 38  0  0  0  0  0  0  0  0999 V2000
   62.3801  -10.4573   -6.3558 C   0  0  0  0  0  0  0  0  0  0  0  0
   62.6464   -9.8177   -5.1642 C   0  0  0  0  0  0  0  0  0  0  0  0
   63.1892   -8.5561   -5.1382 C   0  0  0  0  0  0  0  0  0  0  0  0
   63.4957   -7.8642   -6.3167 C   0  0  0  0  0  0  0  0  0  0  0  0
   63.2321   -8.4978   -7.5096 C   0  0  0  0  0  0  0  0  0  0  0  0
   62.6810   -9.7784   -7.4984 C   0  0  0  0  0  0  0  0  0  0  0  0
   63.6075   -7.6334   -8.6478 C   0  0  0  0  0  0  0  0  0  0  0  0
   63.4622   -7.9237   -9.9152 C   0  0  0  0  0  0  0  0  0  0  0  0
   64.1152   -6.4339   -8.0007 C   0  0  0  0  0  0  0  0  0  0  0  0
   64.5572   -5.3990   -8.5621 O   0  0  0  0  0  0  0  0  0  0  0  0
   64.0423   -6.5871   -6.5712 N   0  0  0  0  0  0  0  0  0  0  0  0
   64.3299   -5.9043   -5.8460 H   0  0  0  0  0  0  0  0  0  0  0  0
   63.8246   -7.0981  -11.0501 C   0  0  0  0  0  0  0  0  0  0  0  0
   64.9824   -6.8210  -11.6464 N   0  0  0  0  0  0  0  0  0  0  0  0
   64.8134   -5.9627  -12.6708 C   0  0  0  0  0  0  0  0  0  0  0  0
   63.4726   -5.6552  -12.7589 C   0  0  0  0  0  0  0  0  0  0  0  0
   62.8604   -6.3637  -11.7490 C   0  0  0  0  0  0  0  0  0  0  0  0
   63.0478   -4.7375  -13.8009 C   0  0  0  0  0  0  0  0  0  0  0  0
   61.8773   -4.8557  -14.2382 O   0  0  0  0  0  0  0  0  0  0  0  0
   63.9432   -3.6824  -14.3529 C   0  0  0  0  0  0  0  0  0  0  0  0
   65.3206   -3.8319  -13.6921 C   0  0  0  0  0  0  0  0  0  0  0  0
   65.7152   -5.3139  -13.6712 C   0  0  0  0  0  0  0  0  0  0  0  0
   65.9027   -7.1996  -11.4045 H   0  0  0  0  0  0  0  0  0  0  0  0
   61.4218   -6.3285  -11.4855 C   0  0  0  0  0  0  0  0  0  0  0  0
   61.0566   -6.5047  -10.0288 C   0  0  0  0  0  0  0  0  0  0  0  0
   59.8430   -5.6968   -9.7829 C   0  0  0  0  0  0  0  0  0  0  0  0
   59.4573   -5.4479   -8.6252 O   0  0  0  0  0  0  0  0  0  0  0  0
   59.1234   -5.2088  -10.8549 O   0  0  0  0  0  0  0  0  0  0  0  0
   58.7157   -5.7923  -11.5735 H   0  0  0  0  0  0  0  0  0  0  0  0
   61.6846  -12.0516   -6.4217 S   0  0  0  0  0  0  0  0  0  0  0  0
   60.6568  -12.1343   -5.3282 O   0  0  0  0  0  0  0  0  0  0  0  0
   62.7102  -13.0992   -6.1734 O   0  0  0  0  0  0  0  0  0  0  0  0
   61.6135  -13.3352   -8.7176 C   0  0  0  0  0  0  0  0  0  0  0  0
   60.8877  -12.3748   -7.9073 N   0  0  0  0  0  0  0  0  0  0  0  0
   60.6030  -11.5398   -8.4234 H   0  0  0  0  0  0  0  0  0  0  0  0
 33 34  1  0  0  0
 34 30  1  0  0  0
 30 31  2  0  0  0
 30 32  2  0  0  0
 30  1  1  0  0  0
  1  2  2  0  0  0
  2  3  1  0  0  0
  3  4  2  0  0  0
  4  5  1  0  0  0
  5  6  2  0  0  0
  5  7  1  0  0  0
  7  8  2  0  0  0
  8 13  1  0  0  0
 13 14  1  0  0  0
 14 15  1  0  0  0
 15 16  2  0  0  0
 16 17  1  0  0  0
 17 24  1  0  0  0
 24 25  1  0  0  0
 25 26  1  0  0  0
 26 27  2  0  0  0
 26 28  1  0  0  0
 16 18  1  0  0  0
 18 19  2  0  0  0
 18 20  1  0  0  0
 20 21  1  0  0  0
 21 22  1  0  0  0
  7  9  1  0  0  0
  9 10  2  0  0  0
  9 11  1  0  0  0
  6  1  1  0  0  0
 17 13  2  0  0  0
 11  4  1  0  0  0
 22 15  1  0  0  0
 34 35  1  0  0  0
 14 23  1  0  0  0
 28 29  1  0  0  0
 11 12  1  0  0  0
M  END
> <minimizedAffinity>
-3.13872

> <CNNscore>
0.4722727835

> <CNNaffinity>
5.0969476700

> <CNN_VS>
2.4071495533

> <CNNaffinity_variance>
0.5134645104

$$$$
[H]OC(=O)C([H])([H])C([H])([H])c1c2c(n([H])c1C([H])=C1C(=O)N([H])c3c([H])c([H])c(S(=O)(=O)N([H])C([H])([H])[H])c([H])c31)C([H])([H])C([H])([H])C([H])([H])C2=O


 35 38  0  0  0  0  0  0  0  0999 V2000
   50.9249   -6.0571   -3.0588 C   0  0  0  0  0  0  0  0  0  0  0  0
   49.7183   -5.4105   -3.2202 C   0  0  0  0  0  0  0  0  0  0  0  0
   49.4837   -4.5992   -4.3035 C   0  0  0  0  0  0  0  0  0  0  0  0
   50.4559   -4.3926   -5.2904 C   0  0  0  0  0  0  0  0  0  0  0  0
   51.6627   -5.0355   -5.1346 C   0  0  0  0  0  0  0  0  0  0  0  0
   51.8661   -5.8513   -4.0225 C   0  0  0  0  0  0  0  0  0  0  0  0
   52.5675   -4.7154   -6.2582 C   0  0  0  0  0  0  0  0  0  0  0  0
   53.7776   -5.1824   -6.4287 C   0  0  0  0  0  0  0  0  0  0  0  0
   51.7690   -3.8233   -7.0839 C   0  0  0  0  0  0  0  0  0  0  0  0
   52.1123   -3.2813   -8.1656 O   0  0  0  0  0  0  0  0  0  0  0  0
   50.4762   -3.6321   -6.4803 N   0  0  0  0  0  0  0  0  0  0  0  0
   49.6926   -3.0518   -6.8326 H   0  0  0  0  0  0  0  0  0  0  0  0
   54.6869   -4.8829   -7.5171 C   0  0  0  0  0  0  0  0  0  0  0  0
   54.5447   -4.2478   -8.6786 N   0  0  0  0  0  0  0  0  0  0  0  0
   55.6948   -4.2445   -9.3798 C   0  0  0  0  0  0  0  0  0  0  0  0
   56.6503   -4.9120   -8.6440 C   0  0  0  0  0  0  0  0  0  0  0  0
   56.0196   -5.3076   -7.4853 C   0  0  0  0  0  0  0  0  0  0  0  0
   57.9836   -5.0362   -9.2054 C   0  0  0  0  0  0  0  0  0  0  0  0
   58.9454   -5.1310   -8.4045 O   0  0  0  0  0  0  0  0  0  0  0  0
   58.2360   -5.0540  -10.6736 C   0  0  0  0  0  0  0  0  0  0  0  0
   56.8957   -4.8403  -11.3907 C   0  0  0  0  0  0  0  0  0  0  0  0
   56.1287   -3.7033  -10.7042 C   0  0  0  0  0  0  0  0  0  0  0  0
   53.6972   -3.7912   -9.0281 H   0  0  0  0  0  0  0  0  0  0  0  0
   56.6791   -6.0512   -6.4118 C   0  0  0  0  0  0  0  0  0  0  0  0
   56.2785   -5.6131   -5.0211 C   0  0  0  0  0  0  0  0  0  0  0  0
   56.3169   -6.8130   -4.1582 C   0  0  0  0  0  0  0  0  0  0  0  0
   57.2749   -7.0259   -3.3914 O   0  0  0  0  0  0  0  0  0  0  0  0
   55.2727   -7.7147   -4.2022 O   0  0  0  0  0  0  0  0  0  0  0  0
   54.9803   -8.1991   -5.0405 H   0  0  0  0  0  0  0  0  0  0  0  0
   51.2492   -7.0983   -1.7021 S   0  0  0  0  0  0  0  0  0  0  0  0
   52.3267   -6.4420   -0.8851 O   0  0  0  0  0  0  0  0  0  0  0  0
   51.7495   -8.4258   -2.1473 O   0  0  0  0  0  0  0  0  0  0  0  0
   49.8944   -8.6112   -0.0291 C   0  0  0  0  0  0  0  0  0  0  0  0
   49.8857   -7.3155   -0.6825 N   0  0  0  0  0  0  0  0  0  0  0  0
   48.9909   -7.0867   -1.1204 H   0  0  0  0  0  0  0  0  0  0  0  0
 33 34  1  0  0  0
 34 30  1  0  0  0
 30 31  2  0  0  0
 30 32  2  0  0  0
 30  1  1  0  0  0
  1  2  2  0  0  0
  2  3  1  0  0  0
  3  4  2  0  0  0
  4  5  1  0  0  0
  5  6  2  0  0  0
  5  7  1  0  0  0
  7  8  2  0  0  0
  8 13  1  0  0  0
 13 14  1  0  0  0
 14 15  1  0  0  0
 15 16  2  0  0  0
 16 17  1  0  0  0
 17 24  1  0  0  0
 24 25  1  0  0  0
 25 26  1  0  0  0
 26 27  2  0  0  0
 26 28  1  0  0  0
 16 18  1  0  0  0
 18 19  2  0  0  0
 18 20  1  0  0  0
 20 21  1  0  0  0
 21 22  1  0  0  0
  7  9  1  0  0  0
  9 10  2  0  0  0
  9 11  1  0  0  0
  6  1  1  0  0  0
 17 13  2  0  0  0
 11  4  1  0  0  0
 22 15  1  0  0  0
 34 35  1  0  0  0
 14 23  1  0  0  0
 28 29  1  0  0  0
 11 12  1  0  0  0
M  END
> <minimizedAffinity>
-9.42748

> <CNNscore>
0.4006746709

> <CNNaffinity>
6.6268944740

> <CNN_VS>
2.6552288532

> <CNNaffinity_variance>
0.3233478665

$$$$
[H]OC(=O)C([H])([H])C([H])([H])c1c2c(n([H])c1C([H])=C1C(=O)N([H])c3c([H])c([H])c(S(=O)(=O)N([H])C([H])([H])[H])c([H])c31)C([H])([H])C([H])([H])C([H])([H])C2=O


 35 38  0  0  0  0  0  0  0  0999 V2000
   56.9225   -4.2799  -12.2331 C   0  0  0  0  0  0  0  0  0  0  0  0
   58.1161   -4.4484  -11.5645 C   0  0  0  0  0  0  0  0  0  0  0  0
   58.1682   -4.4639  -10.1919 C   0  0  0  0  0  0  0  0  0  0  0  0
   57.0153   -4.3102   -9.4116 C   0  0  0  0  0  0  0  0  0  0  0  0
   55.8206   -4.1416  -10.0736 C   0  0  0  0  0  0  0  0  0  0  0  0
   55.8051   -4.1307  -11.4677 C   0  0  0  0  0  0  0  0  0  0  0  0
   54.7107   -3.9995   -9.1085 C   0  0  0  0  0  0  0  0  0  0  0  0
   53.4456   -3.8513   -9.4071 C   0  0  0  0  0  0  0  0  0  0  0  0
   55.3761   -4.1025   -7.8194 C   0  0  0  0  0  0  0  0  0  0  0  0
   54.8407   -4.0428   -6.6829 O   0  0  0  0  0  0  0  0  0  0  0  0
   56.7893   -4.2922   -8.0176 N   0  0  0  0  0  0  0  0  0  0  0  0
   57.5217   -4.3983   -7.2916 H   0  0  0  0  0  0  0  0  0  0  0  0
   52.3385   -3.7060   -8.4828 C   0  0  0  0  0  0  0  0  0  0  0  0
   51.4654   -2.7285   -8.2488 N   0  0  0  0  0  0  0  0  0  0  0  0
   50.6188   -3.0550   -7.2532 C   0  0  0  0  0  0  0  0  0  0  0  0
   50.9474   -4.3160   -6.8039 C   0  0  0  0  0  0  0  0  0  0  0  0
   52.0179   -4.7181   -7.5716 C   0  0  0  0  0  0  0  0  0  0  0  0
   50.1629   -4.8834   -5.7219 C   0  0  0  0  0  0  0  0  0  0  0  0
   50.0694   -6.1337   -5.6648 O   0  0  0  0  0  0  0  0  0  0  0  0
   49.4811   -4.0408   -4.6997 C   0  0  0  0  0  0  0  0  0  0  0  0
   49.7031   -2.5679   -5.0703 C   0  0  0  0  0  0  0  0  0  0  0  0
   49.4688   -2.3824   -6.5747 C   0  0  0  0  0  0  0  0  0  0  0  0
   51.3967   -1.8356   -8.7457 H   0  0  0  0  0  0  0  0  0  0  0  0
   52.6838   -6.0126   -7.4265 C   0  0  0  0  0  0  0  0  0  0  0  0
   52.7798   -6.5007   -5.9986 C   0  0  0  0  0  0  0  0  0  0  0  0
   54.2155   -6.6829   -5.6959 C   0  0  0  0  0  0  0  0  0  0  0  0
   54.9317   -7.4282   -6.3906 O   0  0  0  0  0  0  0  0  0  0  0  0
   54.7735   -6.0157   -4.6241 O   0  0  0  0  0  0  0  0  0  0  0  0
   54.4532   -6.1132   -3.6698 H   0  0  0  0  0  0  0  0  0  0  0  0
   56.8228   -4.2646  -13.9708 S   0  0  0  0  0  0  0  0  0  0  0  0
   55.7254   -3.3081  -14.3451 O   0  0  0  0  0  0  0  0  0  0  0  0
   56.4687   -5.6069  -14.5035 O   0  0  0  0  0  0  0  0  0  0  0  0
   58.0086   -3.0793  -15.9987 C   0  0  0  0  0  0  0  0  0  0  0  0
   58.2662   -3.7163  -14.7206 N   0  0  0  0  0  0  0  0  0  0  0  0
   59.0136   -4.4126  -14.7563 H   0  0  0  0  0  0  0  0  0  0  0  0
 33 34  1  0  0  0
 34 30  1  0  0  0
 30 31  2  0  0  0
 30 32  2  0  0  0
 30  1  1  0  0  0
  1  2  2  0  0  0
  2  3  1  0  0  0
  3  4  2  0  0  0
  4  5  1  0  0  0
  5  6  2  0  0  0
  5  7  1  0  0  0
  7  8  2  0  0  0
  8 13  1  0  0  0
 13 14  1  0  0  0
 14 15  1  0  0  0
 15 16  2  0  0  0
 16 17  1  0  0  0
 17 24  1  0  0  0
 24 25  1  0  0  0
 25 26  1  0  0  0
 26 27  2  0  0  0
 26 28  1  0  0  0
 16 18  1  0  0  0
 18 19  2  0  0  0
 18 20  1  0  0  0
 20 21  1  0  0  0
 21 22  1  0  0  0
  7  9  1  0  0  0
  9 10  2  0  0  0
  9 11  1  0  0  0
  6  1  1  0  0  0
 17 13  2  0  0  0
 11  4  1  0  0  0
 22 15  1  0  0  0
 34 35  1  0  0  0
 14 23  1  0  0  0
 28 29  1  0  0  0
 11 12  1  0  0  0
M  END
> <minimizedAffinity>
-9.39574

> <CNNscore>
0.3434766233

> <CNNaffinity>
6.3667764664

> <CNN_VS>
2.1868388653

> <CNNaffinity_variance>
0.3713016510

$$$$
[H]OC(=O)C([H])([H])C([H])([H])c1c2c(n([H])c1C([H])=C1C(=O)N([H])c3c([H])c([H])c(S(=O)(=O)N([H])C([H])([H])[H])c([H])c31)C([H])([H])C([H])([H])C([H])([H])C2=O


 35 38  0  0  0  0  0  0  0  0999 V2000
   53.1412   -5.7256   -4.2155 C   0  0  0  0  0  0  0  0  0  0  0  0
   54.0330   -5.4616   -3.1981 C   0  0  0  0  0  0  0  0  0  0  0  0
   55.2803   -4.9486   -3.4589 C   0  0  0  0  0  0  0  0  0  0  0  0
   55.7016   -4.6709   -4.7654 C   0  0  0  0  0  0  0  0  0  0  0  0
   54.8155   -4.9324   -5.7854 C   0  0  0  0  0  0  0  0  0  0  0  0
   53.5578   -5.4532   -5.4840 C   0  0  0  0  0  0  0  0  0  0  0  0
   55.4119   -4.5810   -7.0909 C   0  0  0  0  0  0  0  0  0  0  0  0
   54.8265   -4.6820   -8.2565 C   0  0  0  0  0  0  0  0  0  0  0  0
   56.7323   -4.0886   -6.7311 C   0  0  0  0  0  0  0  0  0  0  0  0
   57.6219   -3.6642   -7.5123 O   0  0  0  0  0  0  0  0  0  0  0  0
   56.8990   -4.1489   -5.3026 N   0  0  0  0  0  0  0  0  0  0  0  0
   57.7300   -3.8684   -4.7498 H   0  0  0  0  0  0  0  0  0  0  0  0
   55.3881   -4.3489   -9.5507 C   0  0  0  0  0  0  0  0  0  0  0  0
   54.9171   -3.6953  -10.6107 N   0  0  0  0  0  0  0  0  0  0  0  0
   55.8219   -3.6616  -11.6080 C   0  0  0  0  0  0  0  0  0  0  0  0
   56.9530   -4.3274  -11.1866 C   0  0  0  0  0  0  0  0  0  0  0  0
   56.6794   -4.7534   -9.9058 C   0  0  0  0  0  0  0  0  0  0  0  0
   58.0743   -4.4207  -12.1043 C   0  0  0  0  0  0  0  0  0  0  0  0
   59.2241   -4.5150  -11.6100 O   0  0  0  0  0  0  0  0  0  0  0  0
   57.9014   -4.4082  -13.5841 C   0  0  0  0  0  0  0  0  0  0  0  0
   56.4111   -4.2025  -13.8886 C   0  0  0  0  0  0  0  0  0  0  0  0
   55.8583   -3.0900  -12.9890 C   0  0  0  0  0  0  0  0  0  0  0  0
   54.0009   -3.2457  -10.6966 H   0  0  0  0  0  0  0  0  0  0  0  0
   57.6228   -5.5059   -9.0787 C   0  0  0  0  0  0  0  0  0  0  0  0
   58.5784   -6.3737   -9.8663 C   0  0  0  0  0  0  0  0  0  0  0  0
   59.8134   -6.5016   -9.0636 C   0  0  0  0  0  0  0  0  0  0  0  0
   60.1905   -5.5851   -8.3094 O   0  0  0  0  0  0  0  0  0  0  0  0
   60.5631   -7.6573   -9.1506 O   0  0  0  0  0  0  0  0  0  0  0  0
   60.9621   -8.0077  -10.0113 H   0  0  0  0  0  0  0  0  0  0  0  0
   51.5510   -6.3671   -3.9166 S   0  0  0  0  0  0  0  0  0  0  0  0
   50.9592   -5.5789   -2.7818 O   0  0  0  0  0  0  0  0  0  0  0  0
   51.6127   -7.7949   -3.5060 O   0  0  0  0  0  0  0  0  0  0  0  0
   51.1928   -6.3979   -6.5232 C   0  0  0  0  0  0  0  0  0  0  0  0
   50.4989   -6.2061   -5.2632 N   0  0  0  0  0  0  0  0  0  0  0  0
   49.9146   -5.3677   -5.2441 H   0  0  0  0  0  0  0  0  0  0  0  0
 33 34  1  0  0  0
 34 30  1  0  0  0
 30 31  2  0  0  0
 30 32  2  0  0  0
 30  1  1  0  0  0
  1  2  2  0  0  0
  2  3  1  0  0  0
  3  4  2  0  0  0
  4  5  1  0  0  0
  5  6  2  0  0  0
  5  7  1  0  0  0
  7  8  2  0  0  0
  8 13  1  0  0  0
 13 14  1  0  0  0
 14 15  1  0  0  0
 15 16  2  0  0  0
 16 17  1  0  0  0
 17 24  1  0  0  0
 24 25  1  0  0  0
 25 26  1  0  0  0
 26 27  2  0  0  0
 26 28  1  0  0  0
 16 18  1  0  0  0
 18 19  2  0  0  0
 18 20  1  0  0  0
 20 21  1  0  0  0
 21 22  1  0  0  0
  7  9  1  0  0  0
  9 10  2  0  0  0
  9 11  1  0  0  0
  6  1  1  0  0  0
 17 13  2  0  0  0
 11  4  1  0  0  0
 22 15  1  0  0  0
 34 35  1  0  0  0
 14 23  1  0  0  0
 28 29  1  0  0  0
 11 12  1  0  0  0
M  END
> <minimizedAffinity>
-4.42528

> <CNNscore>
0.3401647210

> <CNNaffinity>
6.4041166306

> <CNN_VS>
2.1784546375

> <CNNaffinity_variance>
0.4959258139

$$$$
[H]c1nc(OC([H])([H])[H])c(N([H])S(=O)(=O)c2c([H])c([H])c(F)c([H])c2F)c([H])c1-c1nc([H])c2nc(N([H])[H])c(-c3c([H])c([H])c([H])c([H])c3[H])c([H])c2c1[H]


 40 44  0  0  0  0  0  0  0  0999 V2000
   56.4266   -3.9347   -9.2797 C   0  0  0  0  0  0  0  0  0  0  0  0
   57.3002   -4.8919   -8.9365 N   0  0  0  0  0  0  0  0  0  0  0  0
   57.2551   -5.5462   -7.7338 C   0  0  0  0  0  0  0  0  0  0  0  0
   56.2914   -5.2441   -6.8049 C   0  0  0  0  0  0  0  0  0  0  0  0
   55.3852   -4.2561   -7.1522 C   0  0  0  0  0  0  0  0  0  0  0  0
   55.4424   -3.5985   -8.3793 C   0  0  0  0  0  0  0  0  0  0  0  0
   56.1910   -5.9085   -5.5008 C   0  0  0  0  0  0  0  0  0  0  0  0
   57.2193   -6.6197   -4.9804 C   0  0  0  0  0  0  0  0  0  0  0  0
   57.1127   -7.2504   -3.7337 C   0  0  0  0  0  0  0  0  0  0  0  0
   58.1738   -7.9695   -3.2241 C   0  0  0  0  0  0  0  0  0  0  0  0
   58.0134   -8.5783   -1.9765 C   0  0  0  0  0  0  0  0  0  0  0  0
   56.8127   -8.4458   -1.2947 C   0  0  0  0  0  0  0  0  0  0  0  0
   56.7083   -9.0779   -0.0286 N   0  0  0  0  0  0  0  0  0  0  0  0
   55.7868   -7.7328   -1.8206 N   0  0  0  0  0  0  0  0  0  0  0  0
   55.9372   -7.1462   -3.0201 C   0  0  0  0  0  0  0  0  0  0  0  0
   54.8989   -6.4078   -3.5831 C   0  0  0  0  0  0  0  0  0  0  0  0
   55.0422   -5.8216   -4.7759 N   0  0  0  0  0  0  0  0  0  0  0  0
   57.5046   -8.9810    0.6304 H   0  0  0  0  0  0  0  0  0  0  0  0
   55.8771   -9.6164    0.2388 H   0  0  0  0  0  0  0  0  0  0  0  0
   59.1189   -9.3300   -1.4599 C   0  0  0  0  0  0  0  0  0  0  0  0
   60.1371   -8.7106   -0.7743 C   0  0  0  0  0  0  0  0  0  0  0  0
   61.2094   -9.3988   -0.2761 C   0  0  0  0  0  0  0  0  0  0  0  0
   61.2891  -10.7571   -0.4575 C   0  0  0  0  0  0  0  0  0  0  0  0
   60.2896  -11.4156   -1.1391 C   0  0  0  0  0  0  0  0  0  0  0  0
   59.2132  -10.6894   -1.6335 C   0  0  0  0  0  0  0  0  0  0  0  0
   56.3130   -3.9662  -11.7348 C   0  0  0  0  0  0  0  0  0  0  0  0
   56.5274   -3.3005  -10.5315 O   0  0  0  0  0  0  0  0  0  0  0  0
   54.5197   -2.5842   -8.7333 N   0  0  0  0  0  0  0  0  0  0  0  0
   54.9102   -1.6066   -8.8574 H   0  0  0  0  0  0  0  0  0  0  0  0
   52.8276   -2.8593   -8.9643 S   0  0  0  0  0  0  0  0  0  0  0  0
   52.0995   -1.5337   -8.9617 O   0  0  0  0  0  0  0  0  0  0  0  0
   52.6185   -3.4450  -10.3295 O   0  0  0  0  0  0  0  0  0  0  0  0
   52.1486   -3.9213   -7.7809 C   0  0  0  0  0  0  0  0  0  0  0  0
   52.5686   -5.2255   -7.6666 C   0  0  0  0  0  0  0  0  0  0  0  0
   52.0032   -6.0378   -6.7032 C   0  0  0  0  0  0  0  0  0  0  0  0
   51.0285   -5.5603   -5.8592 C   0  0  0  0  0  0  0  0  0  0  0  0
   50.4569   -6.3506   -4.8986 F   0  0  0  0  0  0  0  0  0  0  0  0
   50.5903   -4.2467   -5.9577 C   0  0  0  0  0  0  0  0  0  0  0  0
   51.1745   -3.4613   -6.9297 C   0  0  0  0  0  0  0  0  0  0  0  0
   50.7726   -2.1745   -7.0559 F   0  0  0  0  0  0  0  0  0  0  0  0
 26 27  1  0  0  0
 27  1  1  0  0  0
  1  2  2  0  0  0
  2  3  1  0  0  0
  3  4  2  0  0  0
  4  7  1  0  0  0
  7  8  2  0  0  0
  8  9  1  0  0  0
  9 10  2  0  0  0
 10 11  1  0  0  0
 11 20  1  0  0  0
 20 21  2  0  0  0
 21 22  1  0  0  0
 22 23  2  0  0  0
 23 24  1  0  0  0
 24 25  2  0  0  0
 11 12  2  0  0  0
 12 13  1  0  0  0
 12 14  1  0  0  0
 14 15  2  0  0  0
 15 16  1  0  0  0
 16 17  2  0  0  0
  4  5  1  0  0  0
  5  6  2  0  0  0
  6 28  1  0  0  0
 28 30  1  0  0  0
 30 31  2  0  0  0
 30 32  2  0  0  0
 30 33  1  0  0  0
 33 34  2  0  0  0
 34 35  1  0  0  0
 35 36  2  0  0  0
 36 37  1  0  0  0
 36 38  1  0  0  0
 38 39  2  0  0  0
 39 40  1  0  0  0
  6  1  1  0  0  0
 39 33  1  0  0  0
 17  7  1  0  0  0
 15  9  1  0  0  0
 25 20  1  0  0  0
 13 18  1  0  0  0
 13 19  1  0  0  0
 28 29  1  0  0  0
M  END
> <minimizedAffinity>
-9.21239

> <CNNscore>
0.3497669995

> <CNNaffinity>
7.1233720779

> <CNN_VS>
2.4915204048

> <CNNaffinity_variance>
0.2501759231

$$$$
[H]c1nc(OC([H])([H])[H])c(N([H])S(=O)(=O)c2c([H])c([H])c(F)c([H])c2F)c([H])c1-c1nc([H])c2nc(N([H])[H])c(-c3c([H])c([H])c([H])c([H])c3[H])c([H])c2c1[H]


 40 44  0  0  0  0  0  0  0  0999 V2000
   52.3666   -4.0050   -7.3291 C   0  0  0  0  0  0  0  0  0  0  0  0
   52.7784   -3.1645   -8.2889 N   0  0  0  0  0  0  0  0  0  0  0  0
   53.9646   -3.3188   -8.9566 C   0  0  0  0  0  0  0  0  0  0  0  0
   54.8039   -4.3647   -8.6660 C   0  0  0  0  0  0  0  0  0  0  0  0
   54.3854   -5.2373   -7.6754 C   0  0  0  0  0  0  0  0  0  0  0  0
   53.1761   -5.0688   -7.0042 C   0  0  0  0  0  0  0  0  0  0  0  0
   56.0859   -4.5834   -9.3451 C   0  0  0  0  0  0  0  0  0  0  0  0
   57.1147   -5.2233   -8.7400 C   0  0  0  0  0  0  0  0  0  0  0  0
   58.3350   -5.4270   -9.3979 C   0  0  0  0  0  0  0  0  0  0  0  0
   59.3687   -6.0815   -8.7609 C   0  0  0  0  0  0  0  0  0  0  0  0
   60.5639   -6.2576   -9.4633 C   0  0  0  0  0  0  0  0  0  0  0  0
   60.6778   -5.7783  -10.7600 C   0  0  0  0  0  0  0  0  0  0  0  0
   61.9110   -5.9922  -11.4285 N   0  0  0  0  0  0  0  0  0  0  0  0
   59.6447   -5.1384  -11.3606 N   0  0  0  0  0  0  0  0  0  0  0  0
   58.4939   -4.9671  -10.6883 C   0  0  0  0  0  0  0  0  0  0  0  0
   57.4169   -4.3132  -11.2821 C   0  0  0  0  0  0  0  0  0  0  0  0
   56.2693   -4.1397  -10.6188 N   0  0  0  0  0  0  0  0  0  0  0  0
   62.3466   -6.9318  -11.3566 H   0  0  0  0  0  0  0  0  0  0  0  0
   62.3677   -5.2495  -11.9691 H   0  0  0  0  0  0  0  0  0  0  0  0
   61.6344   -6.9315   -8.7895 C   0  0  0  0  0  0  0  0  0  0  0  0
   61.6728   -8.3040   -8.7181 C   0  0  0  0  0  0  0  0  0  0  0  0
   62.6763   -8.9763   -8.0756 C   0  0  0  0  0  0  0  0  0  0  0  0
   63.6899   -8.2722   -7.4746 C   0  0  0  0  0  0  0  0  0  0  0  0
   63.6883   -6.8956   -7.5232 C   0  0  0  0  0  0  0  0  0  0  0  0
   62.6555   -6.2411   -8.1830 C   0  0  0  0  0  0  0  0  0  0  0  0
   50.0714   -3.1269   -7.2827 C   0  0  0  0  0  0  0  0  0  0  0  0
   51.1365   -3.7907   -6.6809 O   0  0  0  0  0  0  0  0  0  0  0  0
   52.7496   -5.9572   -5.9872 N   0  0  0  0  0  0  0  0  0  0  0  0
   51.8004   -6.4108   -6.1176 H   0  0  0  0  0  0  0  0  0  0  0  0
   53.6810   -6.3252   -4.5768 S   0  0  0  0  0  0  0  0  0  0  0  0
   54.6812   -7.4108   -4.9059 O   0  0  0  0  0  0  0  0  0  0  0  0
   54.4878   -5.1162   -4.2055 O   0  0  0  0  0  0  0  0  0  0  0  0
   52.7065   -6.7937   -3.2276 C   0  0  0  0  0  0  0  0  0  0  0  0
   53.0972   -7.8039   -2.3808 C   0  0  0  0  0  0  0  0  0  0  0  0
   52.2909   -8.1420   -1.3115 C   0  0  0  0  0  0  0  0  0  0  0  0
   51.1059   -7.4830   -1.0835 C   0  0  0  0  0  0  0  0  0  0  0  0
   50.2942   -7.8043   -0.0291 F   0  0  0  0  0  0  0  0  0  0  0  0
   50.6931   -6.4600   -1.9265 C   0  0  0  0  0  0  0  0  0  0  0  0
   51.5202   -6.1464   -2.9849 C   0  0  0  0  0  0  0  0  0  0  0  0
   51.1507   -5.1541   -3.8286 F   0  0  0  0  0  0  0  0  0  0  0  0
 26 27  1  0  0  0
 27  1  1  0  0  0
  1  2  2  0  0  0
  2  3  1  0  0  0
  3  4  2  0  0  0
  4  7  1  0  0  0
  7  8  2  0  0  0
  8  9  1  0  0  0
  9 10  2  0  0  0
 10 11  1  0  0  0
 11 20  1  0  0  0
 20 21  2  0  0  0
 21 22  1  0  0  0
 22 23  2  0  0  0
 23 24  1  0  0  0
 24 25  2  0  0  0
 11 12  2  0  0  0
 12 13  1  0  0  0
 12 14  1  0  0  0
 14 15  2  0  0  0
 15 16  1  0  0  0
 16 17  2  0  0  0
  4  5  1  0  0  0
  5  6  2  0  0  0
  6 28  1  0  0  0
 28 30  1  0  0  0
 30 31  2  0  0  0
 30 32  2  0  0  0
 30 33  1  0  0  0
 33 34  2  0  0  0
 34 35  1  0  0  0
 35 36  2  0  0  0
 36 37  1  0  0  0
 36 38  1  0  0  0
 38 39  2  0  0  0
 39 40  1  0  0  0
  6  1  1  0  0  0
 39 33  1  0  0  0
 17  7  1  0  0  0
 15  9  1  0  0  0
 25 20  1  0  0  0
 13 18  1  0  0  0
 13 19  1  0  0  0
 28 29  1  0  0  0
M  END
> <minimizedAffinity>
-8.75201

> <CNNscore>
0.2736797929

> <CNNaffinity>
7.0220437050

> <CNN_VS>
1.9217914343

> <CNNaffinity_variance>
0.1342832595

$$$$
[H]c1nc(OC([H])([H])[H])c(N([H])S(=O)(=O)c2c([H])c([H])c(F)c([H])c2F)c([H])c1-c1nc([H])c2nc(N([H])[H])c(-c3c([H])c([H])c([H])c([H])c3[H])c([H])c2c1[H]


 40 44  0  0  0  0  0  0  0  0999 V2000
   55.4803   -4.3385   -8.9385 C   0  0  0  0  0  0  0  0  0  0  0  0
   56.0868   -4.4111  -10.1319 N   0  0  0  0  0  0  0  0  0  0  0  0
   57.3657   -4.8753  -10.2914 C   0  0  0  0  0  0  0  0  0  0  0  0
   58.1004   -5.2966   -9.2117 C   0  0  0  0  0  0  0  0  0  0  0  0
   57.4807   -5.2246   -7.9753 C   0  0  0  0  0  0  0  0  0  0  0  0
   56.1789   -4.7504   -7.8272 C   0  0  0  0  0  0  0  0  0  0  0  0
   59.4730   -5.8034   -9.3178 C   0  0  0  0  0  0  0  0  0  0  0  0
   60.1454   -6.2754   -8.2412 C   0  0  0  0  0  0  0  0  0  0  0  0
   61.4564   -6.7573   -8.3538 C   0  0  0  0  0  0  0  0  0  0  0  0
   62.1211   -7.2331   -7.2428 C   0  0  0  0  0  0  0  0  0  0  0  0
   63.4268   -7.7018   -7.4116 C   0  0  0  0  0  0  0  0  0  0  0  0
   64.0102   -7.6770   -8.6698 C   0  0  0  0  0  0  0  0  0  0  0  0
   65.3347   -8.1727   -8.7846 N   0  0  0  0  0  0  0  0  0  0  0  0
   63.3324   -7.2032   -9.7439 N   0  0  0  0  0  0  0  0  0  0  0  0
   62.0768   -6.7516   -9.5854 C   0  0  0  0  0  0  0  0  0  0  0  0
   61.3581   -6.2596  -10.6725 C   0  0  0  0  0  0  0  0  0  0  0  0
   60.1086   -5.8091  -10.5215 N   0  0  0  0  0  0  0  0  0  0  0  0
   65.5640   -9.0635   -8.3032 H   0  0  0  0  0  0  0  0  0  0  0  0
   66.0522   -7.6756   -9.3236 H   0  0  0  0  0  0  0  0  0  0  0  0
   64.1115   -8.1863   -6.2495 C   0  0  0  0  0  0  0  0  0  0  0  0
   64.0141   -9.5037   -5.8686 C   0  0  0  0  0  0  0  0  0  0  0  0
   64.6487   -9.9947   -4.7605 C   0  0  0  0  0  0  0  0  0  0  0  0
   65.4148   -9.1569   -3.9888 C   0  0  0  0  0  0  0  0  0  0  0  0
   65.5381   -7.8297   -4.3361 C   0  0  0  0  0  0  0  0  0  0  0  0
   64.8814   -7.3604   -5.4670 C   0  0  0  0  0  0  0  0  0  0  0  0
   53.8416   -2.5079   -9.0080 C   0  0  0  0  0  0  0  0  0  0  0  0
   54.1639   -3.8517   -8.8422 O   0  0  0  0  0  0  0  0  0  0  0  0
   55.5461   -4.6711   -6.5629 N   0  0  0  0  0  0  0  0  0  0  0  0
   55.4577   -3.7059   -6.1336 H   0  0  0  0  0  0  0  0  0  0  0  0
   54.9285   -6.0417   -5.7071 S   0  0  0  0  0  0  0  0  0  0  0  0
   55.0225   -7.2669   -6.5887 O   0  0  0  0  0  0  0  0  0  0  0  0
   55.8152   -6.3103   -4.5273 O   0  0  0  0  0  0  0  0  0  0  0  0
   53.3044   -5.8188   -5.1576 C   0  0  0  0  0  0  0  0  0  0  0  0
   53.0032   -5.7786   -3.8167 C   0  0  0  0  0  0  0  0  0  0  0  0
   51.6929   -5.5928   -3.4215 C   0  0  0  0  0  0  0  0  0  0  0  0
   50.6885   -5.4476   -4.3492 C   0  0  0  0  0  0  0  0  0  0  0  0
   49.3845   -5.2625   -3.9762 F   0  0  0  0  0  0  0  0  0  0  0  0
   50.9712   -5.4850   -5.7079 C   0  0  0  0  0  0  0  0  0  0  0  0
   52.2891   -5.6721   -6.0700 C   0  0  0  0  0  0  0  0  0  0  0  0
   52.6032   -5.7141   -7.3863 F   0  0  0  0  0  0  0  0  0  0  0  0
 26 27  1  0  0  0
 27  1  1  0  0  0
  1  2  2  0  0  0
  2  3  1  0  0  0
  3  4  2  0  0  0
  4  7  1  0  0  0
  7  8  2  0  0  0
  8  9  1  0  0  0
  9 10  2  0  0  0
 10 11  1  0  0  0
 11 20  1  0  0  0
 20 21  2  0  0  0
 21 22  1  0  0  0
 22 23  2  0  0  0
 23 24  1  0  0  0
 24 25  2  0  0  0
 11 12  2  0  0  0
 12 13  1  0  0  0
 12 14  1  0  0  0
 14 15  2  0  0  0
 15 16  1  0  0  0
 16 17  2  0  0  0
  4  5  1  0  0  0
  5  6  2  0  0  0
  6 28  1  0  0  0
 28 30  1  0  0  0
 30 31  2  0  0  0
 30 32  2  0  0  0
 30 33  1  0  0  0
 33 34  2  0  0  0
 34 35  1  0  0  0
 35 36  2  0  0  0
 36 37  1  0  0  0
 36 38  1  0  0  0
 38 39  2  0  0  0
 39 40  1  0  0  0
  6  1  1  0  0  0
 39 33  1  0  0  0
 17  7  1  0  0  0
 15  9  1  0  0  0
 25 20  1  0  0  0
 13 18  1  0  0  0
 13 19  1  0  0  0
 28 29  1  0  0  0
M  END
> <minimizedAffinity>
-7.82141

> <CNNscore>
0.2510863841

> <CNNaffinity>
6.2680063248

> <CNN_VS>
1.5738110542

> <CNNaffinity_variance>
0.2359857559

$$$$
[H]c1nc(OC([H])([H])[H])c(N([H])S(=O)(=O)c2c([H])c([H])c(F)c([H])c2F)c([H])c1-c1nc([H])c2nc(N([H])[H])c(-c3c([H])c([H])c([H])c([H])c3[H])c([H])c2c1[H]


 40 44  0  0  0  0  0  0  0  0999 V2000
   54.2241   -5.6060   -4.5082 C   0  0  0  0  0  0  0  0  0  0  0  0
   55.4468   -5.0829   -4.3390 N   0  0  0  0  0  0  0  0  0  0  0  0
   56.3492   -4.9505   -5.3611 C   0  0  0  0  0  0  0  0  0  0  0  0
   56.0348   -5.3570   -6.6334 C   0  0  0  0  0  0  0  0  0  0  0  0
   54.7733   -5.8986   -6.8161 C   0  0  0  0  0  0  0  0  0  0  0  0
   53.8649   -6.0273   -5.7675 C   0  0  0  0  0  0  0  0  0  0  0  0
   56.9571   -5.2419   -7.7685 C   0  0  0  0  0  0  0  0  0  0  0  0
   56.5282   -4.8929   -9.0048 C   0  0  0  0  0  0  0  0  0  0  0  0
   57.4178   -4.7857  -10.0821 C   0  0  0  0  0  0  0  0  0  0  0  0
   56.9574   -4.4287  -11.3324 C   0  0  0  0  0  0  0  0  0  0  0  0
   57.8877   -4.3366  -12.3712 C   0  0  0  0  0  0  0  0  0  0  0  0
   59.2263   -4.6018  -12.1225 C   0  0  0  0  0  0  0  0  0  0  0  0
   60.1278   -4.4851  -13.2120 N   0  0  0  0  0  0  0  0  0  0  0  0
   59.6498   -4.9509  -10.8830 N   0  0  0  0  0  0  0  0  0  0  0  0
   58.7582   -5.0405   -9.8817 C   0  0  0  0  0  0  0  0  0  0  0  0
   59.1669   -5.3971   -8.5987 C   0  0  0  0  0  0  0  0  0  0  0  0
   58.2850   -5.4878   -7.5982 N   0  0  0  0  0  0  0  0  0  0  0  0
   60.0379   -3.6565  -13.8309 H   0  0  0  0  0  0  0  0  0  0  0  0
   60.8501   -5.1908  -13.3927 H   0  0  0  0  0  0  0  0  0  0  0  0
   57.3978   -3.9731  -13.6681 C   0  0  0  0  0  0  0  0  0  0  0  0
   58.1770   -3.2530  -14.5425 C   0  0  0  0  0  0  0  0  0  0  0  0
   57.7354   -2.8839  -15.7837 C   0  0  0  0  0  0  0  0  0  0  0  0
   56.4718   -3.2360  -16.1881 C   0  0  0  0  0  0  0  0  0  0  0  0
   55.6592   -3.9575  -15.3415 C   0  0  0  0  0  0  0  0  0  0  0  0
   56.1357   -4.3176  -14.0870 C   0  0  0  0  0  0  0  0  0  0  0  0
   53.6714   -5.2787   -2.1357 C   0  0  0  0  0  0  0  0  0  0  0  0
   53.3436   -5.7142   -3.4162 O   0  0  0  0  0  0  0  0  0  0  0  0
   52.5768   -6.5860   -5.9519 N   0  0  0  0  0  0  0  0  0  0  0  0
   52.3483   -7.4539   -5.3878 H   0  0  0  0  0  0  0  0  0  0  0  0
   51.3901   -5.9358   -7.0294 S   0  0  0  0  0  0  0  0  0  0  0  0
   52.0741   -5.4189   -8.2753 O   0  0  0  0  0  0  0  0  0  0  0  0
   50.4908   -7.0484   -7.4809 O   0  0  0  0  0  0  0  0  0  0  0  0
   50.4331   -4.6899   -6.3073 C   0  0  0  0  0  0  0  0  0  0  0  0
   50.0555   -3.5760   -7.0193 C   0  0  0  0  0  0  0  0  0  0  0  0
   49.2858   -2.6075   -6.4050 C   0  0  0  0  0  0  0  0  0  0  0  0
   48.8933   -2.7427   -5.0942 C   0  0  0  0  0  0  0  0  0  0  0  0
   48.1305   -1.7934   -4.4690 F   0  0  0  0  0  0  0  0  0  0  0  0
   49.2637   -3.8597   -4.3576 C   0  0  0  0  0  0  0  0  0  0  0  0
   50.0322   -4.8084   -4.9996 C   0  0  0  0  0  0  0  0  0  0  0  0
   50.4128   -5.9117   -4.3131 F   0  0  0  0  0  0  0  0  0  0  0  0
 26 27  1  0  0  0
 27  1  1  0  0  0
  1  2  2  0  0  0
  2  3  1  0  0  0
  3  4  2  0  0  0
  4  7  1  0  0  0
  7  8  2  0  0  0
  8  9  1  0  0  0
  9 10  2  0  0  0
 10 11  1  0  0  0
 11 20  1  0  0  0
 20 21  2  0  0  0
 21 22  1  0  0  0
 22 23  2  0  0  0
 23 24  1  0  0  0
 24 25  2  0  0  0
 11 12  2  0  0  0
 12 13  1  0  0  0
 12 14  1  0  0  0
 14 15  2  0  0  0
 15 16  1  0  0  0
 16 17  2  0  0  0
  4  5  1  0  0  0
  5  6  2  0  0  0
  6 28  1  0  0  0
 28 30  1  0  0  0
 30 31  2  0  0  0
 30 32  2  0  0  0
 30 33  1  0  0  0
 33 34  2  0  0  0
 34 35  1  0  0  0
 35 36  2  0  0  0
 36 37  1  0  0  0
 36 38  1  0  0  0
 38 39  2  0  0  0
 39 40  1  0  0  0
  6  1  1  0  0  0
 39 33  1  0  0  0
 17  7  1  0  0  0
 15  9  1  0  0  0
 25 20  1  0  0  0
 13 18  1  0  0  0
 13 19  1  0  0  0
 28 29  1  0  0  0
M  END
> <minimizedAffinity>
-8.78130

> <CNNscore>
0.2103235722

> <CNNaffinity>
6.8307814598

> <CNN_VS>
1.4366743565

> <CNNaffinity_variance>
0.4343756735

$$$$
[H]c1nc(OC([H])([H])[H])c(N([H])S(=O)(=O)c2c([H])c([H])c(F)c([H])c2F)c([H])c1-c1nc([H])c2nc(N([H])[H])c(-c3c([H])c([H])c([H])c([H])c3[H])c([H])c2c1[H]


 40 44  0  0  0  0  0  0  0  0999 V2000
   50.7268   -4.1580   -5.9846 C   0  0  0  0  0  0  0  0  0  0  0  0
   50.8795   -3.1944   -6.9041 N   0  0  0  0  0  0  0  0  0  0  0  0
   51.9388   -3.1526   -7.7716 C   0  0  0  0  0  0  0  0  0  0  0  0
   52.9138   -4.1175   -7.7375 C   0  0  0  0  0  0  0  0  0  0  0  0
   52.7632   -5.1164   -6.7902 C   0  0  0  0  0  0  0  0  0  0  0  0
   51.6804   -5.1470   -5.9138 C   0  0  0  0  0  0  0  0  0  0  0  0
   54.0712   -4.1275   -8.6390 C   0  0  0  0  0  0  0  0  0  0  0  0
   55.1988   -4.8181   -8.3461 C   0  0  0  0  0  0  0  0  0  0  0  0
   56.2985   -4.8210   -9.2144 C   0  0  0  0  0  0  0  0  0  0  0  0
   57.4364   -5.5320   -8.8945 C   0  0  0  0  0  0  0  0  0  0  0  0
   58.5036   -5.5004   -9.7962 C   0  0  0  0  0  0  0  0  0  0  0  0
   58.3929   -4.7679  -10.9689 C   0  0  0  0  0  0  0  0  0  0  0  0
   59.5038   -4.7779  -11.8516 N   0  0  0  0  0  0  0  0  0  0  0  0
   57.2619   -4.0784  -11.2568 N   0  0  0  0  0  0  0  0  0  0  0  0
   56.2337   -4.1063  -10.3921 C   0  0  0  0  0  0  0  0  0  0  0  0
   55.0602   -3.4068  -10.6636 C   0  0  0  0  0  0  0  0  0  0  0  0
   54.0336   -3.4307   -9.8077 N   0  0  0  0  0  0  0  0  0  0  0  0
   59.9652   -5.6882  -12.0424 H   0  0  0  0  0  0  0  0  0  0  0  0
   59.8497   -3.9192  -12.2935 H   0  0  0  0  0  0  0  0  0  0  0  0
   59.6842   -6.2357   -9.4505 C   0  0  0  0  0  0  0  0  0  0  0  0
   59.8736   -7.5216   -9.8987 C   0  0  0  0  0  0  0  0  0  0  0  0
   60.9854   -8.2522   -9.5797 C   0  0  0  0  0  0  0  0  0  0  0  0
   61.9576   -7.6984   -8.7844 C   0  0  0  0  0  0  0  0  0  0  0  0
   61.8059   -6.4125   -8.3144 C   0  0  0  0  0  0  0  0  0  0  0  0
   60.6656   -5.6955   -8.6555 C   0  0  0  0  0  0  0  0  0  0  0  0
   48.8676   -2.9964   -4.8731 C   0  0  0  0  0  0  0  0  0  0  0  0
   49.6151   -4.1436   -5.1225 O   0  0  0  0  0  0  0  0  0  0  0  0
   51.5280   -6.1648   -4.9410 N   0  0  0  0  0  0  0  0  0  0  0  0
   51.0891   -7.0733   -5.2661 H   0  0  0  0  0  0  0  0  0  0  0  0
   52.0105   -5.9975   -3.2883 S   0  0  0  0  0  0  0  0  0  0  0  0
   51.2746   -4.8314   -2.6670 O   0  0  0  0  0  0  0  0  0  0  0  0
   51.5689   -7.2165   -2.5337 O   0  0  0  0  0  0  0  0  0  0  0  0
   53.7179   -5.8010   -3.1000 C   0  0  0  0  0  0  0  0  0  0  0  0
   54.5895   -6.1155   -4.1158 C   0  0  0  0  0  0  0  0  0  0  0  0
   55.9458   -5.9375   -3.9248 C   0  0  0  0  0  0  0  0  0  0  0  0
   56.4342   -5.4511   -2.7352 C   0  0  0  0  0  0  0  0  0  0  0  0
   57.7749   -5.2681   -2.5278 F   0  0  0  0  0  0  0  0  0  0  0  0
   55.5714   -5.1273   -1.6969 C   0  0  0  0  0  0  0  0  0  0  0  0
   54.2232   -5.3164   -1.9190 C   0  0  0  0  0  0  0  0  0  0  0  0
   53.3509   -5.0117   -0.9292 F   0  0  0  0  0  0  0  0  0  0  0  0
 26 27  1  0  0  0
 27  1  1  0  0  0
  1  2  2  0  0  0
  2  3  1  0  0  0
  3  4  2  0  0  0
  4  7  1  0  0  0
  7  8  2  0  0  0
  8  9  1  0  0  0
  9 10  2  0  0  0
 10 11  1  0  0  0
 11 20  1  0  0  0
 20 21  2  0  0  0
 21 22  1  0  0  0
 22 23  2  0  0  0
 23 24  1  0  0  0
 24 25  2  0  0  0
 11 12  2  0  0  0
 12 13  1  0  0  0
 12 14  1  0  0  0
 14 15  2  0  0  0
 15 16  1  0  0  0
 16 17  2  0  0  0
  4  5  1  0  0  0
  5  6  2  0  0  0
  6 28  1  0  0  0
 28 30  1  0  0  0
 30 31  2  0  0  0
 30 32  2  0  0  0
 30 33  1  0  0  0
 33 34  2  0  0  0
 34 35  1  0  0  0
 35 36  2  0  0  0
 36 37  1  0  0  0
 36 38  1  0  0  0
 38 39  2  0  0  0
 39 40  1  0  0  0
  6  1  1  0  0  0
 39 33  1  0  0  0
 17  7  1  0  0  0
 15  9  1  0  0  0
 25 20  1  0  0  0
 13 18  1  0  0  0
 13 19  1  0  0  0
 28 29  1  0  0  0
M  END
> <minimizedAffinity>
-8.87728

> <CNNscore>
0.2069702744

> <CNNaffinity>
7.3658218384

> <CNN_VS>
1.5245062113

> <CNNaffinity_variance>
0.1717733741

$$$$
[H]c1nc(OC([H])([H])[H])c(N([H])S(=O)(=O)c2c([H])c([H])c(F)c([H])c2F)c([H])c1-c1nc([H])c2nc(N([H])[H])c(-c3c([H])c([H])c([H])c([H])c3[H])c([H])c2c1[H]


 40 44  0  0  0  0  0  0  0  0999 V2000
   56.2921   -5.1342   -6.9049 C   0  0  0  0  0  0  0  0  0  0  0  0
   57.4654   -5.4927   -7.4454 N   0  0  0  0  0  0  0  0  0  0  0  0
   57.7965   -5.2324   -8.7489 C   0  0  0  0  0  0  0  0  0  0  0  0
   56.9218   -4.5778   -9.5791 C   0  0  0  0  0  0  0  0  0  0  0  0
   55.7074   -4.2043   -9.0280 C   0  0  0  0  0  0  0  0  0  0  0  0
   55.3834   -4.4752   -7.7002 C   0  0  0  0  0  0  0  0  0  0  0  0
   57.2179   -4.2704  -10.9827 C   0  0  0  0  0  0  0  0  0  0  0  0
   58.4890   -4.1662  -11.4383 C   0  0  0  0  0  0  0  0  0  0  0  0
   58.7607   -3.8723  -12.7812 C   0  0  0  0  0  0  0  0  0  0  0  0
   60.0638   -3.7710  -13.2219 C   0  0  0  0  0  0  0  0  0  0  0  0
   60.2778   -3.4760  -14.5710 C   0  0  0  0  0  0  0  0  0  0  0  0
   59.1935   -3.2959  -15.4171 C   0  0  0  0  0  0  0  0  0  0  0  0
   59.4693   -3.0064  -16.7785 N   0  0  0  0  0  0  0  0  0  0  0  0
   57.9233   -3.4013  -14.9555 N   0  0  0  0  0  0  0  0  0  0  0  0
   57.7136   -3.6848  -13.6588 C   0  0  0  0  0  0  0  0  0  0  0  0
   56.4185   -3.7988  -13.1587 C   0  0  0  0  0  0  0  0  0  0  0  0
   56.2032   -4.0808  -11.8699 N   0  0  0  0  0  0  0  0  0  0  0  0
   60.2041   -3.5639  -17.2550 H   0  0  0  0  0  0  0  0  0  0  0  0
   58.9652   -2.2716  -17.2868 H   0  0  0  0  0  0  0  0  0  0  0  0
   61.6353   -3.3648  -15.0170 C   0  0  0  0  0  0  0  0  0  0  0  0
   62.4543   -2.3647  -14.5487 C   0  0  0  0  0  0  0  0  0  0  0  0
   63.7516   -2.2270  -14.9608 C   0  0  0  0  0  0  0  0  0  0  0  0
   64.2718   -3.1096  -15.8744 C   0  0  0  0  0  0  0  0  0  0  0  0
   63.4840   -4.1259  -16.3684 C   0  0  0  0  0  0  0  0  0  0  0  0
   62.1702   -4.2399  -15.9308 C   0  0  0  0  0  0  0  0  0  0  0  0
   56.4234   -6.6114   -4.9449 C   0  0  0  0  0  0  0  0  0  0  0  0
   56.0130   -5.4315   -5.5584 O   0  0  0  0  0  0  0  0  0  0  0  0
   54.1399   -4.0987   -7.1371 N   0  0  0  0  0  0  0  0  0  0  0  0
   54.0710   -3.1151   -6.7477 H   0  0  0  0  0  0  0  0  0  0  0  0
   52.7638   -5.1436   -7.0549 S   0  0  0  0  0  0  0  0  0  0  0  0
   52.4459   -5.6635   -8.4391 O   0  0  0  0  0  0  0  0  0  0  0  0
   53.1224   -6.3457   -6.2322 O   0  0  0  0  0  0  0  0  0  0  0  0
   51.3750   -4.3780   -6.3659 C   0  0  0  0  0  0  0  0  0  0  0  0
   50.7817   -4.8668   -5.2260 C   0  0  0  0  0  0  0  0  0  0  0  0
   49.6773   -4.2206   -4.7061 C   0  0  0  0  0  0  0  0  0  0  0  0
   49.1649   -3.0979   -5.3121 C   0  0  0  0  0  0  0  0  0  0  0  0
   48.0712   -2.4444   -4.8113 F   0  0  0  0  0  0  0  0  0  0  0  0
   49.7489   -2.5879   -6.4638 C   0  0  0  0  0  0  0  0  0  0  0  0
   50.8501   -3.2559   -6.9578 C   0  0  0  0  0  0  0  0  0  0  0  0
   51.4466   -2.7880   -8.0796 F   0  0  0  0  0  0  0  0  0  0  0  0
 26 27  1  0  0  0
 27  1  1  0  0  0
  1  2  2  0  0  0
  2  3  1  0  0  0
  3  4  2  0  0  0
  4  7  1  0  0  0
  7  8  2  0  0  0
  8  9  1  0  0  0
  9 10  2  0  0  0
 10 11  1  0  0  0
 11 20  1  0  0  0
 20 21  2  0  0  0
 21 22  1  0  0  0
 22 23  2  0  0  0
 23 24  1  0  0  0
 24 25  2  0  0  0
 11 12  2  0  0  0
 12 13  1  0  0  0
 12 14  1  0  0  0
 14 15  2  0  0  0
 15 16  1  0  0  0
 16 17  2  0  0  0
  4  5  1  0  0  0
  5  6  2  0  0  0
  6 28  1  0  0  0
 28 30  1  0  0  0
 30 31  2  0  0  0
 30 32  2  0  0  0
 30 33  1  0  0  0
 33 34  2  0  0  0
 34 35  1  0  0  0
 35 36  2  0  0  0
 36 37  1  0  0  0
 36 38  1  0  0  0
 38 39  2  0  0  0
 39 40  1  0  0  0
  6  1  1  0  0  0
 39 33  1  0  0  0
 17  7  1  0  0  0
 15  9  1  0  0  0
 25 20  1  0  0  0
 13 18  1  0  0  0
 13 19  1  0  0  0
 28 29  1  0  0  0
M  END
> <minimizedAffinity>
-10.10421

> <CNNscore>
0.2056826502

> <CNNaffinity>
6.4532842636

> <CNN_VS>
1.3273285627

> <CNNaffinity_variance>
0.3901431561

$$$$
[H]c1nc(OC([H])([H])[H])c(N([H])S(=O)(=O)c2c([H])c([H])c(F)c([H])c2F)c([H])c1-c1nc([H])c2nc(N([H])[H])c(-c3c([H])c([H])c([H])c([H])c3[H])c([H])c2c1[H]


 40 44  0  0  0  0  0  0  0  0999 V2000
   52.1534   -3.9770   -7.2110 C   0  0  0  0  0  0  0  0  0  0  0  0
   52.4634   -3.0445   -8.1230 N   0  0  0  0  0  0  0  0  0  0  0  0
   53.6041   -3.0921   -8.8801 C   0  0  0  0  0  0  0  0  0  0  0  0
   54.5013   -4.1202   -8.7355 C   0  0  0  0  0  0  0  0  0  0  0  0
   54.1880   -5.0874   -7.7952 C   0  0  0  0  0  0  0  0  0  0  0  0
   53.0240   -5.0269   -7.0317 C   0  0  0  0  0  0  0  0  0  0  0  0
   55.7390   -4.2268   -9.5158 C   0  0  0  0  0  0  0  0  0  0  0  0
   55.7928   -3.8729  -10.8219 C   0  0  0  0  0  0  0  0  0  0  0  0
   56.9805   -3.9787  -11.5579 C   0  0  0  0  0  0  0  0  0  0  0  0
   57.0108   -3.6121  -12.8874 C   0  0  0  0  0  0  0  0  0  0  0  0
   58.2214   -3.7378  -13.5740 C   0  0  0  0  0  0  0  0  0  0  0  0
   59.3415   -4.2194  -12.9126 C   0  0  0  0  0  0  0  0  0  0  0  0
   60.5459   -4.3185  -13.6563 N   0  0  0  0  0  0  0  0  0  0  0  0
   59.2818   -4.5723  -11.6051 N   0  0  0  0  0  0  0  0  0  0  0  0
   58.1194   -4.4528  -10.9417 C   0  0  0  0  0  0  0  0  0  0  0  0
   58.0307   -4.8083   -9.5977 C   0  0  0  0  0  0  0  0  0  0  0  0
   56.8774   -4.6917   -8.9320 N   0  0  0  0  0  0  0  0  0  0  0  0
   60.8080   -3.5201  -14.2659 H   0  0  0  0  0  0  0  0  0  0  0  0
   61.1471   -5.1479  -13.6017 H   0  0  0  0  0  0  0  0  0  0  0  0
   58.2401   -3.3621  -14.9569 C   0  0  0  0  0  0  0  0  0  0  0  0
   57.5059   -4.0568  -15.8889 C   0  0  0  0  0  0  0  0  0  0  0  0
   57.5090   -3.7281  -17.2169 C   0  0  0  0  0  0  0  0  0  0  0  0
   58.2664   -2.6698  -17.6535 C   0  0  0  0  0  0  0  0  0  0  0  0
   59.0165   -1.9479  -16.7515 C   0  0  0  0  0  0  0  0  0  0  0  0
   58.9931   -2.3059  -15.4092 C   0  0  0  0  0  0  0  0  0  0  0  0
   49.7375   -3.5569   -7.0415 C   0  0  0  0  0  0  0  0  0  0  0  0
   50.9652   -3.8699   -6.4653 O   0  0  0  0  0  0  0  0  0  0  0  0
   52.7053   -6.0123   -6.0660 N   0  0  0  0  0  0  0  0  0  0  0  0
   51.8126   -6.5621   -6.2224 H   0  0  0  0  0  0  0  0  0  0  0  0
   53.6791   -6.3500   -4.6768 S   0  0  0  0  0  0  0  0  0  0  0  0
   54.6925   -7.4179   -5.0228 O   0  0  0  0  0  0  0  0  0  0  0  0
   54.4703   -5.1220   -4.3352 O   0  0  0  0  0  0  0  0  0  0  0  0
   52.7485   -6.8268   -3.2998 C   0  0  0  0  0  0  0  0  0  0  0  0
   53.1723   -7.8339   -2.4652 C   0  0  0  0  0  0  0  0  0  0  0  0
   52.4006   -8.1790   -1.3729 C   0  0  0  0  0  0  0  0  0  0  0  0
   51.2172   -7.5300   -1.1101 C   0  0  0  0  0  0  0  0  0  0  0  0
   50.4395   -7.8583   -0.0325 F   0  0  0  0  0  0  0  0  0  0  0  0
   50.7713   -6.5105   -1.9402 C   0  0  0  0  0  0  0  0  0  0  0  0
   51.5644   -6.1897   -3.0222 C   0  0  0  0  0  0  0  0  0  0  0  0
   51.1620   -5.2003   -3.8543 F   0  0  0  0  0  0  0  0  0  0  0  0
 26 27  1  0  0  0
 27  1  1  0  0  0
  1  2  2  0  0  0
  2  3  1  0  0  0
  3  4  2  0  0  0
  4  7  1  0  0  0
  7  8  2  0  0  0
  8  9  1  0  0  0
  9 10  2  0  0  0
 10 11  1  0  0  0
 11 20  1  0  0  0
 20 21  2  0  0  0
 21 22  1  0  0  0
 22 23  2  0  0  0
 23 24  1  0  0  0
 24 25  2  0  0  0
 11 12  2  0  0  0
 12 13  1  0  0  0
 12 14  1  0  0  0
 14 15  2  0  0  0
 15 16  1  0  0  0
 16 17  2  0  0  0
  4  5  1  0  0  0
  5  6  2  0  0  0
  6 28  1  0  0  0
 28 30  1  0  0  0
 30 31  2  0  0  0
 30 32  2  0  0  0
 30 33  1  0  0  0
 33 34  2  0  0  0
 34 35  1  0  0  0
 35 36  2  0  0  0
 36 37  1  0  0  0
 36 38  1  0  0  0
 38 39  2  0  0  0
 39 40  1  0  0  0
  6  1  1  0  0  0
 39 33  1  0  0  0
 17  7  1  0  0  0
 15  9  1  0  0  0
 25 20  1  0  0  0
 13 18  1  0  0  0
 13 19  1  0  0  0
 28 29  1  0  0  0
M  END
> <minimizedAffinity>
-8.16839

> <CNNscore>
0.1975516975

> <CNNaffinity>
6.8658394814

> <CNN_VS>
1.3563582897

> <CNNaffinity_variance>
0.1458181590

$$$$
[H]c1nc(OC([H])([H])[H])c(N([H])S(=O)(=O)c2c([H])c([H])c(F)c([H])c2F)c([H])c1-c1nc([H])c2nc(N([H])[H])c(-c3c([H])c([H])c([H])c([H])c3[H])c([H])c2c1[H]


 40 44  0  0  0  0  0  0  0  0999 V2000
   55.9577   -5.9391   -5.5089 C   0  0  0  0  0  0  0  0  0  0  0  0
   57.1757   -5.8832   -6.0662 N   0  0  0  0  0  0  0  0  0  0  0  0
   57.3848   -5.5001   -7.3647 C   0  0  0  0  0  0  0  0  0  0  0  0
   56.3324   -5.1484   -8.1719 C   0  0  0  0  0  0  0  0  0  0  0  0
   55.0708   -5.2037   -7.6034 C   0  0  0  0  0  0  0  0  0  0  0  0
   54.8723   -5.5951   -6.2809 C   0  0  0  0  0  0  0  0  0  0  0  0
   56.4916   -4.7300   -9.5690 C   0  0  0  0  0  0  0  0  0  0  0  0
   57.7128   -4.5774  -10.1342 C   0  0  0  0  0  0  0  0  0  0  0  0
   57.8535   -4.1774  -11.4698 C   0  0  0  0  0  0  0  0  0  0  0  0
   59.1080   -4.0287  -12.0236 C   0  0  0  0  0  0  0  0  0  0  0  0
   59.1907   -3.6277  -13.3598 C   0  0  0  0  0  0  0  0  0  0  0  0
   58.0297   -3.3939  -14.0818 C   0  0  0  0  0  0  0  0  0  0  0  0
   58.1728   -2.9968  -15.4365 N   0  0  0  0  0  0  0  0  0  0  0  0
   56.8100   -3.5481  -13.5108 N   0  0  0  0  0  0  0  0  0  0  0  0
   56.7265   -3.9334  -12.2261 C   0  0  0  0  0  0  0  0  0  0  0  0
   55.4857   -4.0994  -11.6152 C   0  0  0  0  0  0  0  0  0  0  0  0
   55.3959   -4.4827  -10.3378 N   0  0  0  0  0  0  0  0  0  0  0  0
   58.8601   -3.5080  -16.0230 H   0  0  0  0  0  0  0  0  0  0  0  0
   57.6200   -2.2302  -15.8354 H   0  0  0  0  0  0  0  0  0  0  0  0
   60.4989   -3.4680  -13.9231 C   0  0  0  0  0  0  0  0  0  0  0  0
   61.2446   -2.3406  -13.6723 C   0  0  0  0  0  0  0  0  0  0  0  0
   62.4925   -2.1550  -14.2014 C   0  0  0  0  0  0  0  0  0  0  0  0
   63.0361   -3.1181  -15.0145 C   0  0  0  0  0  0  0  0  0  0  0  0
   62.3213   -4.2627  -15.2908 C   0  0  0  0  0  0  0  0  0  0  0  0
   61.0563   -4.4225  -14.7388 C   0  0  0  0  0  0  0  0  0  0  0  0
   55.8208   -7.6761   -3.7753 C   0  0  0  0  0  0  0  0  0  0  0  0
   55.8105   -6.3412   -4.1687 O   0  0  0  0  0  0  0  0  0  0  0  0
   53.5823   -5.6574   -5.7001 N   0  0  0  0  0  0  0  0  0  0  0  0
   53.5357   -5.6576   -4.6410 H   0  0  0  0  0  0  0  0  0  0  0  0
   52.1165   -5.7339   -6.6153 S   0  0  0  0  0  0  0  0  0  0  0  0
   52.3465   -6.5587   -7.8619 O   0  0  0  0  0  0  0  0  0  0  0  0
   51.0873   -6.4733   -5.8125 O   0  0  0  0  0  0  0  0  0  0  0  0
   51.4983   -4.1737   -7.0315 C   0  0  0  0  0  0  0  0  0  0  0  0
   52.0740   -3.4194   -8.0265 C   0  0  0  0  0  0  0  0  0  0  0  0
   51.5443   -2.1806   -8.3305 C   0  0  0  0  0  0  0  0  0  0  0  0
   50.4516   -1.6934   -7.6529 C   0  0  0  0  0  0  0  0  0  0  0  0
   49.9131   -0.4681   -7.9405 F   0  0  0  0  0  0  0  0  0  0  0  0
   49.8554   -2.4390   -6.6450 C   0  0  0  0  0  0  0  0  0  0  0  0
   50.4079   -3.6716   -6.3654 C   0  0  0  0  0  0  0  0  0  0  0  0
   49.8533   -4.4275   -5.3885 F   0  0  0  0  0  0  0  0  0  0  0  0
 26 27  1  0  0  0
 27  1  1  0  0  0
  1  2  2  0  0  0
  2  3  1  0  0  0
  3  4  2  0  0  0
  4  7  1  0  0  0
  7  8  2  0  0  0
  8  9  1  0  0  0
  9 10  2  0  0  0
 10 11  1  0  0  0
 11 20  1  0  0  0
 20 21  2  0  0  0
 21 22  1  0  0  0
 22 23  2  0  0  0
 23 24  1  0  0  0
 24 25  2  0  0  0
 11 12  2  0  0  0
 12 13  1  0  0  0
 12 14  1  0  0  0
 14 15  2  0  0  0
 15 16  1  0  0  0
 16 17  2  0  0  0
  4  5  1  0  0  0
  5  6  2  0  0  0
  6 28  1  0  0  0
 28 30  1  0  0  0
 30 31  2  0  0  0
 30 32  2  0  0  0
 30 33  1  0  0  0
 33 34  2  0  0  0
 34 35  1  0  0  0
 35 36  2  0  0  0
 36 37  1  0  0  0
 36 38  1  0  0  0
 38 39  2  0  0  0
 39 40  1  0  0  0
  6  1  1  0  0  0
 39 33  1  0  0  0
 17  7  1  0  0  0
 15  9  1  0  0  0
 25 20  1  0  0  0
 13 18  1  0  0  0
 13 19  1  0  0  0
 28 29  1  0  0  0
M  END
> <minimizedAffinity>
-8.63493

> <CNNscore>
0.1891634315

> <CNNaffinity>
6.7394380569

> <CNN_VS>
1.2748552561

> <CNNaffinity_variance>
0.3317117095

$$$$
[H]c1nc(OC([H])([H])[H])c(N([H])S(=O)(=O)c2c([H])c([H])c(F)c([H])c2F)c([H])c1-c1nc([H])c2nc(N([H])[H])c(-c3c([H])c([H])c([H])c([H])c3[H])c([H])c2c1[H]


 40 44  0  0  0  0  0  0  0  0999 V2000
   54.4894   -5.4959   -4.4218 C   0  0  0  0  0  0  0  0  0  0  0  0
   55.7379   -5.0216   -4.3047 N   0  0  0  0  0  0  0  0  0  0  0  0
   56.6119   -4.9548   -5.3574 C   0  0  0  0  0  0  0  0  0  0  0  0
   56.2401   -5.3803   -6.6079 C   0  0  0  0  0  0  0  0  0  0  0  0
   54.9518   -5.8717   -6.7367 C   0  0  0  0  0  0  0  0  0  0  0  0
   54.0727   -5.9339   -5.6574 C   0  0  0  0  0  0  0  0  0  0  0  0
   57.1296   -5.3344   -7.7736 C   0  0  0  0  0  0  0  0  0  0  0  0
   58.3669   -5.8845   -7.7500 C   0  0  0  0  0  0  0  0  0  0  0  0
   59.2085   -5.8352   -8.8693 C   0  0  0  0  0  0  0  0  0  0  0  0
   60.4648   -6.4027   -8.8214 C   0  0  0  0  0  0  0  0  0  0  0  0
   61.2627   -6.3247   -9.9661 C   0  0  0  0  0  0  0  0  0  0  0  0
   60.7791   -5.6902  -11.1008 C   0  0  0  0  0  0  0  0  0  0  0  0
   61.6287   -5.6477  -12.2365 N   0  0  0  0  0  0  0  0  0  0  0  0
   59.5399   -5.1411  -11.1186 N   0  0  0  0  0  0  0  0  0  0  0  0
   58.7699   -5.2140  -10.0197 C   0  0  0  0  0  0  0  0  0  0  0  0
   57.4926   -4.6582  -10.0113 C   0  0  0  0  0  0  0  0  0  0  0  0
   56.7215   -4.7275   -8.9216 N   0  0  0  0  0  0  0  0  0  0  0  0
   62.1305   -6.5172  -12.5012 H   0  0  0  0  0  0  0  0  0  0  0  0
   61.7514   -4.7908  -12.7869 H   0  0  0  0  0  0  0  0  0  0  0  0
   62.5694   -6.9101   -9.9032 C   0  0  0  0  0  0  0  0  0  0  0  0
   62.8078   -8.1651  -10.4115 C   0  0  0  0  0  0  0  0  0  0  0  0
   64.0414   -8.7543  -10.3595 C   0  0  0  0  0  0  0  0  0  0  0  0
   65.0911   -8.0838   -9.7827 C   0  0  0  0  0  0  0  0  0  0  0  0
   64.8940   -6.8242   -9.2613 C   0  0  0  0  0  0  0  0  0  0  0  0
   63.6297   -6.2520   -9.3289 C   0  0  0  0  0  0  0  0  0  0  0  0
   54.1040   -5.3923   -1.9964 C   0  0  0  0  0  0  0  0  0  0  0  0
   53.6404   -5.5378   -3.3007 O   0  0  0  0  0  0  0  0  0  0  0  0
   52.7570   -6.4414   -5.7867 N   0  0  0  0  0  0  0  0  0  0  0  0
   52.4900   -7.2430   -5.1465 H   0  0  0  0  0  0  0  0  0  0  0  0
   51.5956   -5.8309   -6.9139 S   0  0  0  0  0  0  0  0  0  0  0  0
   52.3144   -5.2788   -8.1246 O   0  0  0  0  0  0  0  0  0  0  0  0
   50.7626   -6.9749   -7.4118 O   0  0  0  0  0  0  0  0  0  0  0  0
   50.5580   -4.6289   -6.2299 C   0  0  0  0  0  0  0  0  0  0  0  0
   50.1968   -3.5087   -6.9406 C   0  0  0  0  0  0  0  0  0  0  0  0
   49.3611   -2.5763   -6.3577 C   0  0  0  0  0  0  0  0  0  0  0  0
   48.8868   -2.7534   -5.0794 C   0  0  0  0  0  0  0  0  0  0  0  0
   48.0578   -1.8401   -4.4856 F   0  0  0  0  0  0  0  0  0  0  0  0
   49.2393   -3.8773   -4.3446 C   0  0  0  0  0  0  0  0  0  0  0  0
   50.0751   -4.7895   -4.9547 C   0  0  0  0  0  0  0  0  0  0  0  0
   50.4407   -5.8982   -4.2690 F   0  0  0  0  0  0  0  0  0  0  0  0
 26 27  1  0  0  0
 27  1  1  0  0  0
  1  2  2  0  0  0
  2  3  1  0  0  0
  3  4  2  0  0  0
  4  7  1  0  0  0
  7  8  2  0  0  0
  8  9  1  0  0  0
  9 10  2  0  0  0
 10 11  1  0  0  0
 11 20  1  0  0  0
 20 21  2  0  0  0
 21 22  1  0  0  0
 22 23  2  0  0  0
 23 24  1  0  0  0
 24 25  2  0  0  0
 11 12  2  0  0  0
 12 13  1  0  0  0
 12 14  1  0  0  0
 14 15  2  0  0  0
 15 16  1  0  0  0
 16 17  2  0  0  0
  4  5  1  0  0  0
  5  6  2  0  0  0
  6 28  1  0  0  0
 28 30  1  0  0  0
 30 31  2  0  0  0
 30 32  2  0  0  0
 30 33  1  0  0  0
 33 34  2  0  0  0
 34 35  1  0  0  0
 35 36  2  0  0  0
 36 37  1  0  0  0
 36 38  1  0  0  0
 38 39  2  0  0  0
 39 40  1  0  0  0
  6  1  1  0  0  0
 39 33  1  0  0  0
 17  7  1  0  0  0
 15  9  1  0  0  0
 25 20  1  0  0  0
 13 18  1  0  0  0
 13 19  1  0  0  0
 28 29  1  0  0  0
M  END
> <minimizedAffinity>
-7.49758

> <CNNscore>
0.1738739312

> <CNNaffinity>
6.5808196068

> <CNN_VS>
1.1442329884

> <CNNaffinity_variance>
0.1104457155

$$$$
[H]c1c([H])c(S(=O)(=O)C([H])([H])C([H])([H])C([H])([H])C([H])([H])C([H])([H])C([H])([H])[H])c(Cl)c(Cl)c1C(=O)C([H])([H])C([H])([H])N1C([H])([H])C1([H])C([H])([H])[H]


 25 26  0  0  0  0  0  0  0  0999 V2000
   55.9363   -4.4994   -8.9641 C   0  0  0  0  0  0  0  0  0  0  0  0
   55.0728   -4.0740   -9.9590 C   0  0  0  0  0  0  0  0  0  0  0  0
   55.4859   -3.9849  -11.2613 C   0  0  0  0  0  0  0  0  0  0  0  0
   56.7555   -4.3115  -11.6369 C   0  0  0  0  0  0  0  0  0  0  0  0
   57.6484   -4.7417  -10.6465 C   0  0  0  0  0  0  0  0  0  0  0  0
   59.2937   -5.1596  -11.1230 Cl  0  0  0  0  0  0  0  0  0  0  0  0
   57.2207   -4.8230   -9.3408 C   0  0  0  0  0  0  0  0  0  0  0  0
   58.3396   -5.3471   -8.1063 Cl  0  0  0  0  0  0  0  0  0  0  0  0
   55.3569   -4.6845   -7.3237 S   0  0  0  0  0  0  0  0  0  0  0  0
   56.0441   -3.5915   -6.5027 O   0  0  0  0  0  0  0  0  0  0  0  0
   55.6476   -6.0252   -6.7795 O   0  0  0  0  0  0  0  0  0  0  0  0
   53.6141   -4.3359   -7.3774 C   0  0  0  0  0  0  0  0  0  0  0  0
   52.8128   -5.2686   -6.5390 C   0  0  0  0  0  0  0  0  0  0  0  0
   51.4000   -4.6698   -6.4460 C   0  0  0  0  0  0  0  0  0  0  0  0
   51.3558   -3.3796   -7.2154 C   0  0  0  0  0  0  0  0  0  0  0  0
   49.4649   -2.8819   -5.7905 C   0  0  0  0  0  0  0  0  0  0  0  0
   50.0718   -2.6345   -7.1659 C   0  0  0  0  0  0  0  0  0  0  0  0
   57.1886   -4.3495  -13.0598 C   0  0  0  0  0  0  0  0  0  0  0  0
   58.2389   -3.8751  -13.3845 O   0  0  0  0  0  0  0  0  0  0  0  0
   56.2380   -4.9876  -13.9671 C   0  0  0  0  0  0  0  0  0  0  0  0
   56.0993   -4.4450  -15.3344 C   0  0  0  0  0  0  0  0  0  0  0  0
   57.1953   -4.2196  -16.1558 N   0  0  0  0  0  0  0  0  0  0  0  0
   57.9229   -3.1127  -16.5538 C   0  0  0  0  0  0  0  0  0  0  0  0
   56.8772   -3.7028  -17.5022 C   0  0  0  0  0  0  0  0  0  0  0  0
   55.6212   -2.8999  -17.6482 C   0  0  0  0  0  0  0  0  0  0  0  0
 16 17  1  0  0  0
 17 15  1  0  0  0
 15 14  1  0  0  0
 14 13  1  0  0  0
 13 12  1  0  0  0
 12  9  1  0  0  0
  9 10  2  0  0  0
  9 11  2  0  0  0
  9  1  1  0  0  0
  1  2  2  0  0  0
  2  3  1  0  0  0
  3  4  2  0  0  0
  4 18  1  0  0  0
 18 19  2  0  0  0
 18 20  1  0  0  0
 20 21  1  0  0  0
 21 22  1  0  0  0
 22 23  1  0  0  0
 23 24  1  0  0  0
 24 25  1  0  0  0
  4  5  1  0  0  0
  5  6  1  0  0  0
  5  7  2  0  0  0
  7  8  1  0  0  0
  7  1  1  0  0  0
 24 22  1  0  0  0
M  END
> <minimizedAffinity>
-7.36789

> <CNNscore>
0.7072838545

> <CNNaffinity>
6.7356100082

> <CNN_VS>
4.7639880180

> <CNNaffinity_variance>
0.0344040208

$$$$
[H]c1c([H])c(S(=O)(=O)C([H])([H])C([H])([H])C([H])([H])C([H])([H])C([H])([H])C([H])([H])[H])c(Cl)c(Cl)c1C(=O)C([H])([H])C([H])([H])N1C([H])([H])C1([H])C([H])([H])[H]


 25 26  0  0  0  0  0  0  0  0999 V2000
   52.2271   -3.7183   -7.5387 C   0  0  0  0  0  0  0  0  0  0  0  0
   52.6544   -4.8528   -6.8704 C   0  0  0  0  0  0  0  0  0  0  0  0
   51.9911   -5.3121   -5.7642 C   0  0  0  0  0  0  0  0  0  0  0  0
   50.8857   -4.6809   -5.2750 C   0  0  0  0  0  0  0  0  0  0  0  0
   50.4364   -3.5284   -5.9332 C   0  0  0  0  0  0  0  0  0  0  0  0
   49.0116   -2.7027   -5.3030 Cl  0  0  0  0  0  0  0  0  0  0  0  0
   51.1150   -3.0759   -7.0418 C   0  0  0  0  0  0  0  0  0  0  0  0
   50.5604   -1.6317   -7.8526 Cl  0  0  0  0  0  0  0  0  0  0  0  0
   53.0433   -3.2037   -8.9981 S   0  0  0  0  0  0  0  0  0  0  0  0
   53.7401   -1.8854   -8.6549 O   0  0  0  0  0  0  0  0  0  0  0  0
   52.1088   -3.0367  -10.1282 O   0  0  0  0  0  0  0  0  0  0  0  0
   54.2889   -4.4308   -9.3216 C   0  0  0  0  0  0  0  0  0  0  0  0
   55.6525   -3.8489   -9.4512 C   0  0  0  0  0  0  0  0  0  0  0  0
   56.5120   -4.4996   -8.3553 C   0  0  0  0  0  0  0  0  0  0  0  0
   56.2873   -3.7799   -7.0551 C   0  0  0  0  0  0  0  0  0  0  0  0
   56.1480   -6.0844   -6.3313 C   0  0  0  0  0  0  0  0  0  0  0  0
   56.0069   -4.6375   -5.8752 C   0  0  0  0  0  0  0  0  0  0  0  0
   50.0727   -5.2328   -4.1578 C   0  0  0  0  0  0  0  0  0  0  0  0
   48.8983   -5.0084   -4.0970 O   0  0  0  0  0  0  0  0  0  0  0  0
   50.8277   -6.0281   -3.1926 C   0  0  0  0  0  0  0  0  0  0  0  0
   51.6636   -5.3209   -2.2005 C   0  0  0  0  0  0  0  0  0  0  0  0
   52.4368   -5.9978   -1.2674 N   0  0  0  0  0  0  0  0  0  0  0  0
   53.4142   -5.6500   -0.3527 C   0  0  0  0  0  0  0  0  0  0  0  0
   53.8250   -6.2791   -1.6856 C   0  0  0  0  0  0  0  0  0  0  0  0
   54.4470   -5.3386   -2.6716 C   0  0  0  0  0  0  0  0  0  0  0  0
 16 17  1  0  0  0
 17 15  1  0  0  0
 15 14  1  0  0  0
 14 13  1  0  0  0
 13 12  1  0  0  0
 12  9  1  0  0  0
  9 10  2  0  0  0
  9 11  2  0  0  0
  9  1  1  0  0  0
  1  2  2  0  0  0
  2  3  1  0  0  0
  3  4  2  0  0  0
  4 18  1  0  0  0
 18 19  2  0  0  0
 18 20  1  0  0  0
 20 21  1  0  0  0
 21 22  1  0  0  0
 22 23  1  0  0  0
 23 24  1  0  0  0
 24 25  1  0  0  0
  4  5  1  0  0  0
  5  6  1  0  0  0
  5  7  2  0  0  0
  7  8  1  0  0  0
  7  1  1  0  0  0
 24 22  1  0  0  0
M  END
> <minimizedAffinity>
-7.05106

> <CNNscore>
0.7071864009

> <CNNaffinity>
7.4830689430

> <CNN_VS>
5.2919244766

> <CNNaffinity_variance>
0.1682914495

$$$$
[H]c1c([H])c(S(=O)(=O)C([H])([H])C([H])([H])C([H])([H])C([H])([H])C([H])([H])C([H])([H])[H])c(Cl)c(Cl)c1C(=O)C([H])([H])C([H])([H])N1C([H])([H])C1([H])C([H])([H])[H]


 25 26  0  0  0  0  0  0  0  0999 V2000
   52.5764   -3.8196   -7.6278 C   0  0  0  0  0  0  0  0  0  0  0  0
   53.0140   -4.9534   -6.9650 C   0  0  0  0  0  0  0  0  0  0  0  0
   52.3315   -5.4476   -5.8859 C   0  0  0  0  0  0  0  0  0  0  0  0
   51.1962   -4.8532   -5.4194 C   0  0  0  0  0  0  0  0  0  0  0  0
   50.7359   -3.7022   -6.0725 C   0  0  0  0  0  0  0  0  0  0  0  0
   49.2723   -2.9239   -5.4715 Cl  0  0  0  0  0  0  0  0  0  0  0  0
   51.4339   -3.2143   -7.1537 C   0  0  0  0  0  0  0  0  0  0  0  0
   50.8651   -1.7719   -7.9578 Cl  0  0  0  0  0  0  0  0  0  0  0  0
   53.4205   -3.2603   -9.0546 S   0  0  0  0  0  0  0  0  0  0  0  0
   54.1545   -1.9827   -8.6426 O   0  0  0  0  0  0  0  0  0  0  0  0
   52.5012   -3.0097  -10.1817 O   0  0  0  0  0  0  0  0  0  0  0  0
   54.6304   -4.5084   -9.4289 C   0  0  0  0  0  0  0  0  0  0  0  0
   56.0252   -3.9913   -9.3867 C   0  0  0  0  0  0  0  0  0  0  0  0
   56.5847   -4.3532   -8.0014 C   0  0  0  0  0  0  0  0  0  0  0  0
   57.8080   -5.2102   -8.1682 C   0  0  0  0  0  0  0  0  0  0  0  0
   59.6585   -6.0467   -9.4833 C   0  0  0  0  0  0  0  0  0  0  0  0
   58.2727   -5.4187   -9.5635 C   0  0  0  0  0  0  0  0  0  0  0  0
   50.3662   -5.4441   -4.3352 C   0  0  0  0  0  0  0  0  0  0  0  0
   49.1745   -5.3307   -4.3566 O   0  0  0  0  0  0  0  0  0  0  0  0
   51.1266   -6.1326   -3.2951 C   0  0  0  0  0  0  0  0  0  0  0  0
   51.8972   -5.3183   -2.3327 C   0  0  0  0  0  0  0  0  0  0  0  0
   52.7221   -5.8897   -1.3737 N   0  0  0  0  0  0  0  0  0  0  0  0
   53.6966   -5.4309   -0.5060 C   0  0  0  0  0  0  0  0  0  0  0  0
   54.1152   -6.1274   -1.8024 C   0  0  0  0  0  0  0  0  0  0  0  0
   54.6686   -5.2256   -2.8628 C   0  0  0  0  0  0  0  0  0  0  0  0
 16 17  1  0  0  0
 17 15  1  0  0  0
 15 14  1  0  0  0
 14 13  1  0  0  0
 13 12  1  0  0  0
 12  9  1  0  0  0
  9 10  2  0  0  0
  9 11  2  0  0  0
  9  1  1  0  0  0
  1  2  2  0  0  0
  2  3  1  0  0  0
  3  4  2  0  0  0
  4 18  1  0  0  0
 18 19  2  0  0  0
 18 20  1  0  0  0
 20 21  1  0  0  0
 21 22  1  0  0  0
 22 23  1  0  0  0
 23 24  1  0  0  0
 24 25  1  0  0  0
  4  5  1  0  0  0
  5  6  1  0  0  0
  5  7  2  0  0  0
  7  8  1  0  0  0
  7  1  1  0  0  0
 24 22  1  0  0  0
M  END
> <minimizedAffinity>
-7.33215

> <CNNscore>
0.6559531689

> <CNNaffinity>
7.3176131248

> <CNN_VS>
4.8000116348

> <CNNaffinity_variance>
0.1830932647

$$$$
[H]c1c([H])c(S(=O)(=O)C([H])([H])C([H])([H])C([H])([H])C([H])([H])C([H])([H])C([H])([H])[H])c(Cl)c(Cl)c1C(=O)C([H])([H])C([H])([H])N1C([H])([H])C1([H])C([H])([H])[H]


 25 26  0  0  0  0  0  0  0  0999 V2000
   56.1030   -4.4413   -8.9956 C   0  0  0  0  0  0  0  0  0  0  0  0
   56.7731   -5.1114   -7.9864 C   0  0  0  0  0  0  0  0  0  0  0  0
   58.0262   -5.6240   -8.1908 C   0  0  0  0  0  0  0  0  0  0  0  0
   58.6690   -5.4966   -9.3867 C   0  0  0  0  0  0  0  0  0  0  0  0
   58.0089   -4.8249  -10.4242 C   0  0  0  0  0  0  0  0  0  0  0  0
   58.8306   -4.6616  -11.9757 Cl  0  0  0  0  0  0  0  0  0  0  0  0
   56.7481   -4.3179  -10.2059 C   0  0  0  0  0  0  0  0  0  0  0  0
   55.9224   -3.4925  -11.5050 Cl  0  0  0  0  0  0  0  0  0  0  0  0
   54.5390   -3.7236   -8.6799 S   0  0  0  0  0  0  0  0  0  0  0  0
   53.6239   -4.1769   -9.8193 O   0  0  0  0  0  0  0  0  0  0  0  0
   54.6085   -2.2514   -8.6028 O   0  0  0  0  0  0  0  0  0  0  0  0
   53.9596   -4.4570   -7.1673 C   0  0  0  0  0  0  0  0  0  0  0  0
   53.2042   -5.7197   -7.3903 C   0  0  0  0  0  0  0  0  0  0  0  0
   51.8503   -5.5508   -6.6822 C   0  0  0  0  0  0  0  0  0  0  0  0
   51.4250   -4.1114   -6.7606 C   0  0  0  0  0  0  0  0  0  0  0  0
   49.6610   -2.4584   -6.6628 C   0  0  0  0  0  0  0  0  0  0  0  0
   50.1608   -3.7660   -6.0615 C   0  0  0  0  0  0  0  0  0  0  0  0
   60.0782   -5.9272   -9.5923 C   0  0  0  0  0  0  0  0  0  0  0  0
   60.5378   -5.9834  -10.6964 O   0  0  0  0  0  0  0  0  0  0  0  0
   60.7957   -6.2631   -8.3649 C   0  0  0  0  0  0  0  0  0  0  0  0
   61.6292   -7.4831   -8.3500 C   0  0  0  0  0  0  0  0  0  0  0  0
   62.1786   -7.9896   -7.1803 N   0  0  0  0  0  0  0  0  0  0  0  0
   62.9166   -7.4753   -6.1297 C   0  0  0  0  0  0  0  0  0  0  0  0
   63.6294   -8.2610   -7.2323 C   0  0  0  0  0  0  0  0  0  0  0  0
   64.4467   -7.4364   -8.1787 C   0  0  0  0  0  0  0  0  0  0  0  0
 16 17  1  0  0  0
 17 15  1  0  0  0
 15 14  1  0  0  0
 14 13  1  0  0  0
 13 12  1  0  0  0
 12  9  1  0  0  0
  9 10  2  0  0  0
  9 11  2  0  0  0
  9  1  1  0  0  0
  1  2  2  0  0  0
  2  3  1  0  0  0
  3  4  2  0  0  0
  4 18  1  0  0  0
 18 19  2  0  0  0
 18 20  1  0  0  0
 20 21  1  0  0  0
 21 22  1  0  0  0
 22 23  1  0  0  0
 23 24  1  0  0  0
 24 25  1  0  0  0
  4  5  1  0  0  0
  5  6  1  0  0  0
  5  7  2  0  0  0
  7  8  1  0  0  0
  7  1  1  0  0  0
 24 22  1  0  0  0
M  END
> <minimizedAffinity>
-6.33911

> <CNNscore>
0.6128054857

> <CNNaffinity>
6.4025588036

> <CNN_VS>
3.9235231876

> <CNNaffinity_variance>
0.1226345748

$$$$
[H]c1c([H])c(S(=O)(=O)C([H])([H])C([H])([H])C([H])([H])C([H])([H])C([H])([H])C([H])([H])[H])c(Cl)c(Cl)c1C(=O)C([H])([H])C([H])([H])N1C([H])([H])C1([H])C([H])([H])[H]


 25 26  0  0  0  0  0  0  0  0999 V2000
   56.5273   -4.8755   -8.4300 C   0  0  0  0  0  0  0  0  0  0  0  0
   57.7703   -5.3677   -8.7895 C   0  0  0  0  0  0  0  0  0  0  0  0
   58.2237   -5.2666  -10.0775 C   0  0  0  0  0  0  0  0  0  0  0  0
   57.4801   -4.6783  -11.0575 C   0  0  0  0  0  0  0  0  0  0  0  0
   56.2171   -4.1755  -10.7178 C   0  0  0  0  0  0  0  0  0  0  0  0
   55.2465   -3.4192  -11.9807 Cl  0  0  0  0  0  0  0  0  0  0  0  0
   55.7724   -4.2872   -9.4201 C   0  0  0  0  0  0  0  0  0  0  0  0
   54.1922   -3.6714   -9.0023 Cl  0  0  0  0  0  0  0  0  0  0  0  0
   56.0100   -4.9426   -6.7600 S   0  0  0  0  0  0  0  0  0  0  0  0
   56.1688   -3.5249   -6.2070 O   0  0  0  0  0  0  0  0  0  0  0  0
   56.7944   -5.9146   -5.9739 O   0  0  0  0  0  0  0  0  0  0  0  0
   54.2774   -5.3404   -6.7994 C   0  0  0  0  0  0  0  0  0  0  0  0
   53.8060   -5.9910   -5.5466 C   0  0  0  0  0  0  0  0  0  0  0  0
   52.3448   -5.5555   -5.3503 C   0  0  0  0  0  0  0  0  0  0  0  0
   51.7564   -5.1771   -6.6805 C   0  0  0  0  0  0  0  0  0  0  0  0
   50.7969   -2.9795   -7.0022 C   0  0  0  0  0  0  0  0  0  0  0  0
   50.4770   -4.4237   -6.6369 C   0  0  0  0  0  0  0  0  0  0  0  0
   58.0030   -4.4387  -12.4296 C   0  0  0  0  0  0  0  0  0  0  0  0
   57.4333   -4.8907  -13.3807 O   0  0  0  0  0  0  0  0  0  0  0  0
   59.2259   -3.6414  -12.4828 C   0  0  0  0  0  0  0  0  0  0  0  0
   60.1329   -3.8224  -13.6351 C   0  0  0  0  0  0  0  0  0  0  0  0
   59.9752   -3.1154  -14.8191 N   0  0  0  0  0  0  0  0  0  0  0  0
   59.6328   -3.4300  -16.1217 C   0  0  0  0  0  0  0  0  0  0  0  0
   61.1048   -3.2126  -15.7655 C   0  0  0  0  0  0  0  0  0  0  0  0
   61.9395   -4.4551  -15.7102 C   0  0  0  0  0  0  0  0  0  0  0  0
 16 17  1  0  0  0
 17 15  1  0  0  0
 15 14  1  0  0  0
 14 13  1  0  0  0
 13 12  1  0  0  0
 12  9  1  0  0  0
  9 10  2  0  0  0
  9 11  2  0  0  0
  9  1  1  0  0  0
  1  2  2  0  0  0
  2  3  1  0  0  0
  3  4  2  0  0  0
  4 18  1  0  0  0
 18 19  2  0  0  0
 18 20  1  0  0  0
 20 21  1  0  0  0
 21 22  1  0  0  0
 22 23  1  0  0  0
 23 24  1  0  0  0
 24 25  1  0  0  0
  4  5  1  0  0  0
  5  6  1  0  0  0
  5  7  2  0  0  0
  7  8  1  0  0  0
  7  1  1  0  0  0
 24 22  1  0  0  0
M  END
> <minimizedAffinity>
-6.10106

> <CNNscore>
0.5568366051

> <CNNaffinity>
6.6936354637

> <CNN_VS>
3.7272613049

> <CNNaffinity_variance>
0.2826527953

$$$$
[H]c1c([H])c(S(=O)(=O)C([H])([H])C([H])([H])C([H])([H])C([H])([H])C([H])([H])C([H])([H])[H])c(Cl)c(Cl)c1C(=O)C([H])([H])C([H])([H])N1C([H])([H])C1([H])C([H])([H])[H]


 25 26  0  0  0  0  0  0  0  0999 V2000
   52.7702   -3.8232   -7.7329 C   0  0  0  0  0  0  0  0  0  0  0  0
   53.0755   -4.9346   -6.9660 C   0  0  0  0  0  0  0  0  0  0  0  0
   52.2609   -5.3284   -5.9385 C   0  0  0  0  0  0  0  0  0  0  0  0
   51.1184   -4.6521   -5.6269 C   0  0  0  0  0  0  0  0  0  0  0  0
   50.7905   -3.5218   -6.3874 C   0  0  0  0  0  0  0  0  0  0  0  0
   49.3183   -2.6380   -5.9868 Cl  0  0  0  0  0  0  0  0  0  0  0  0
   51.6204   -3.1352   -7.4151 C   0  0  0  0  0  0  0  0  0  0  0  0
   51.2161   -1.7184   -8.3530 Cl  0  0  0  0  0  0  0  0  0  0  0  0
   53.7842   -3.3936   -9.0924 S   0  0  0  0  0  0  0  0  0  0  0  0
   54.4357   -2.0567   -8.7329 O   0  0  0  0  0  0  0  0  0  0  0  0
   53.0163   -3.2940  -10.3488 O   0  0  0  0  0  0  0  0  0  0  0  0
   55.0541   -4.6359   -9.1684 C   0  0  0  0  0  0  0  0  0  0  0  0
   56.3335   -4.1201   -9.7267 C   0  0  0  0  0  0  0  0  0  0  0  0
   56.2097   -4.2058  -11.2566 C   0  0  0  0  0  0  0  0  0  0  0  0
   57.4326   -3.6025  -11.8884 C   0  0  0  0  0  0  0  0  0  0  0  0
   56.3814   -4.6269  -13.8117 C   0  0  0  0  0  0  0  0  0  0  0  0
   57.5551   -3.7671  -13.3595 C   0  0  0  0  0  0  0  0  0  0  0  0
   50.1515   -5.1347   -4.6043 C   0  0  0  0  0  0  0  0  0  0  0  0
   49.1483   -5.6962   -4.9388 O   0  0  0  0  0  0  0  0  0  0  0  0
   50.5378   -4.8550   -3.2235 C   0  0  0  0  0  0  0  0  0  0  0  0
   50.9469   -5.9863   -2.3656 C   0  0  0  0  0  0  0  0  0  0  0  0
   52.0324   -6.7943   -2.6744 N   0  0  0  0  0  0  0  0  0  0  0  0
   52.8944   -7.6086   -1.9624 C   0  0  0  0  0  0  0  0  0  0  0  0
   53.3562   -6.2105   -2.3781 C   0  0  0  0  0  0  0  0  0  0  0  0
   53.4286   -5.2053   -1.2699 C   0  0  0  0  0  0  0  0  0  0  0  0
 16 17  1  0  0  0
 17 15  1  0  0  0
 15 14  1  0  0  0
 14 13  1  0  0  0
 13 12  1  0  0  0
 12  9  1  0  0  0
  9 10  2  0  0  0
  9 11  2  0  0  0
  9  1  1  0  0  0
  1  2  2  0  0  0
  2  3  1  0  0  0
  3  4  2  0  0  0
  4 18  1  0  0  0
 18 19  2  0  0  0
 18 20  1  0  0  0
 20 21  1  0  0  0
 21 22  1  0  0  0
 22 23  1  0  0  0
 23 24  1  0  0  0
 24 25  1  0  0  0
  4  5  1  0  0  0
  5  6  1  0  0  0
  5  7  2  0  0  0
  7  8  1  0  0  0
  7  1  1  0  0  0
 24 22  1  0  0  0
M  END
> <minimizedAffinity>
-7.07423

> <CNNscore>
0.5502185225

> <CNNaffinity>
7.0859160423

> <CNN_VS>
3.8988022804

> <CNNaffinity_variance>
0.1277521700

$$$$
[H]c1c([H])c(S(=O)(=O)C([H])([H])C([H])([H])C([H])([H])C([H])([H])C([H])([H])C([H])([H])[H])c(Cl)c(Cl)c1C(=O)C([H])([H])C([H])([H])N1C([H])([H])C1([H])C([H])([H])[H]


 25 26  0  0  0  0  0  0  0  0999 V2000
   52.9683   -4.1238   -7.4651 C   0  0  0  0  0  0  0  0  0  0  0  0
   53.8307   -4.9985   -6.8266 C   0  0  0  0  0  0  0  0  0  0  0  0
   53.4680   -5.6244   -5.6641 C   0  0  0  0  0  0  0  0  0  0  0  0
   52.2492   -5.4200   -5.0875 C   0  0  0  0  0  0  0  0  0  0  0  0
   51.3606   -4.5363   -5.7143 C   0  0  0  0  0  0  0  0  0  0  0  0
   49.7853   -4.2616   -4.9716 Cl  0  0  0  0  0  0  0  0  0  0  0  0
   51.7399   -3.9112   -6.8804 C   0  0  0  0  0  0  0  0  0  0  0  0
   50.6353   -2.8001   -7.6525 Cl  0  0  0  0  0  0  0  0  0  0  0  0
   53.4257   -3.4044   -8.9929 S   0  0  0  0  0  0  0  0  0  0  0  0
   52.9037   -1.9665   -8.9606 O   0  0  0  0  0  0  0  0  0  0  0  0
   52.8764   -4.1475  -10.1437 O   0  0  0  0  0  0  0  0  0  0  0  0
   55.2032   -3.3575   -8.9998 C   0  0  0  0  0  0  0  0  0  0  0  0
   55.8121   -4.6226   -9.4933 C   0  0  0  0  0  0  0  0  0  0  0  0
   56.6116   -4.2606  -10.7554 C   0  0  0  0  0  0  0  0  0  0  0  0
   57.9892   -4.8534  -10.6577 C   0  0  0  0  0  0  0  0  0  0  0  0
   59.7473   -6.0442   -9.4980 C   0  0  0  0  0  0  0  0  0  0  0  0
   58.3089   -5.5542   -9.3876 C   0  0  0  0  0  0  0  0  0  0  0  0
   51.7823   -6.1862   -3.9007 C   0  0  0  0  0  0  0  0  0  0  0  0
   51.0155   -7.0962   -4.0324 O   0  0  0  0  0  0  0  0  0  0  0  0
   52.3276   -5.7241   -2.6266 C   0  0  0  0  0  0  0  0  0  0  0  0
   51.8890   -6.4002   -1.3882 C   0  0  0  0  0  0  0  0  0  0  0  0
   52.4564   -7.5902   -0.9540 N   0  0  0  0  0  0  0  0  0  0  0  0
   52.3295   -8.9266   -1.2869 C   0  0  0  0  0  0  0  0  0  0  0  0
   51.6157   -8.3931   -0.0432 C   0  0  0  0  0  0  0  0  0  0  0  0
   50.1308   -8.2445   -0.1728 C   0  0  0  0  0  0  0  0  0  0  0  0
 16 17  1  0  0  0
 17 15  1  0  0  0
 15 14  1  0  0  0
 14 13  1  0  0  0
 13 12  1  0  0  0
 12  9  1  0  0  0
  9 10  2  0  0  0
  9 11  2  0  0  0
  9  1  1  0  0  0
  1  2  2  0  0  0
  2  3  1  0  0  0
  3  4  2  0  0  0
  4 18  1  0  0  0
 18 19  2  0  0  0
 18 20  1  0  0  0
 20 21  1  0  0  0
 21 22  1  0  0  0
 22 23  1  0  0  0
 23 24  1  0  0  0
 24 25  1  0  0  0
  4  5  1  0  0  0
  5  6  1  0  0  0
  5  7  2  0  0  0
  7  8  1  0  0  0
  7  1  1  0  0  0
 24 22  1  0  0  0
M  END
> <minimizedAffinity>
-6.55604

> <CNNscore>
0.4461282790

> <CNNaffinity>
6.7899618149

> <CNN_VS>
3.0291938782

> <CNNaffinity_variance>
0.1804358810

$$$$
[H]c1c([H])c(S(=O)(=O)C([H])([H])C([H])([H])C([H])([H])C([H])([H])C([H])([H])C([H])([H])[H])c(Cl)c(Cl)c1C(=O)C([H])([H])C([H])([H])N1C([H])([H])C1([H])C([H])([H])[H]


 25 26  0  0  0  0  0  0  0  0999 V2000
   54.5311   -4.6917   -7.3297 C   0  0  0  0  0  0  0  0  0  0  0  0
   54.2716   -5.8720   -6.6544 C   0  0  0  0  0  0  0  0  0  0  0  0
   52.9932   -6.2227   -6.3120 C   0  0  0  0  0  0  0  0  0  0  0  0
   51.9242   -5.4342   -6.6205 C   0  0  0  0  0  0  0  0  0  0  0  0
   52.1628   -4.2329   -7.3011 C   0  0  0  0  0  0  0  0  0  0  0  0
   50.7866   -3.2045   -7.6979 Cl  0  0  0  0  0  0  0  0  0  0  0  0
   53.4534   -3.8912   -7.6359 C   0  0  0  0  0  0  0  0  0  0  0  0
   53.7492   -2.3869   -8.4727 Cl  0  0  0  0  0  0  0  0  0  0  0  0
   56.1642   -4.3108   -7.8288 S   0  0  0  0  0  0  0  0  0  0  0  0
   56.9734   -5.5981   -7.6584 O   0  0  0  0  0  0  0  0  0  0  0  0
   56.7431   -3.2063   -7.0395 O   0  0  0  0  0  0  0  0  0  0  0  0
   56.0704   -3.9306   -9.5633 C   0  0  0  0  0  0  0  0  0  0  0  0
   57.1094   -4.6323  -10.3650 C   0  0  0  0  0  0  0  0  0  0  0  0
   57.3725   -3.7581  -11.6018 C   0  0  0  0  0  0  0  0  0  0  0  0
   56.9969   -4.5230  -12.8397 C   0  0  0  0  0  0  0  0  0  0  0  0
   56.0326   -4.6853  -15.0527 C   0  0  0  0  0  0  0  0  0  0  0  0
   56.5242   -3.7107  -13.9899 C   0  0  0  0  0  0  0  0  0  0  0  0
   50.5179   -5.8546   -6.3774 C   0  0  0  0  0  0  0  0  0  0  0  0
   49.9416   -6.5296   -7.1811 O   0  0  0  0  0  0  0  0  0  0  0  0
   49.9479   -5.3716   -5.1221 C   0  0  0  0  0  0  0  0  0  0  0  0
   50.8161   -5.3282   -3.9272 C   0  0  0  0  0  0  0  0  0  0  0  0
   50.9895   -6.4278   -3.0982 N   0  0  0  0  0  0  0  0  0  0  0  0
   51.2219   -6.6232   -1.7489 C   0  0  0  0  0  0  0  0  0  0  0  0
   52.3890   -6.7262   -2.7328 C   0  0  0  0  0  0  0  0  0  0  0  0
   53.3498   -5.5774   -2.7075 C   0  0  0  0  0  0  0  0  0  0  0  0
 16 17  1  0  0  0
 17 15  1  0  0  0
 15 14  1  0  0  0
 14 13  1  0  0  0
 13 12  1  0  0  0
 12  9  1  0  0  0
  9 10  2  0  0  0
  9 11  2  0  0  0
  9  1  1  0  0  0
  1  2  2  0  0  0
  2  3  1  0  0  0
  3  4  2  0  0  0
  4 18  1  0  0  0
 18 19  2  0  0  0
 18 20  1  0  0  0
 20 21  1  0  0  0
 21 22  1  0  0  0
 22 23  1  0  0  0
 23 24  1  0  0  0
 24 25  1  0  0  0
  4  5  1  0  0  0
  5  6  1  0  0  0
  5  7  2  0  0  0
  7  8  1  0  0  0
  7  1  1  0  0  0
 24 22  1  0  0  0
M  END
> <minimizedAffinity>
-7.03520

> <CNNscore>
0.3948523998

> <CNNaffinity>
6.7817139626

> <CNN_VS>
2.6777760983

> <CNNaffinity_variance>
0.1235959083

$$$$
[H]c1c([H])c(S(=O)(=O)C([H])([H])C([H])([H])C([H])([H])C([H])([H])C([H])([H])C([H])([H])[H])c(Cl)c(Cl)c1C(=O)C([H])([H])C([H])([H])N1C([H])([H])C1([H])C([H])([H])[H]


 25 26  0  0  0  0  0  0  0  0999 V2000
   53.8547   -4.5335   -8.3090 C   0  0  0  0  0  0  0  0  0  0  0  0
   53.5023   -3.8103   -9.4356 C   0  0  0  0  0  0  0  0  0  0  0  0
   54.4231   -3.5254  -10.4079 C   0  0  0  0  0  0  0  0  0  0  0  0
   55.7189   -3.9400  -10.3147 C   0  0  0  0  0  0  0  0  0  0  0  0
   56.0997   -4.6709   -9.1816 C   0  0  0  0  0  0  0  0  0  0  0  0
   57.7749   -5.2051   -9.0504 Cl  0  0  0  0  0  0  0  0  0  0  0  0
   55.1645   -4.9470   -8.2102 C   0  0  0  0  0  0  0  0  0  0  0  0
   55.6451   -5.8470   -6.7926 Cl  0  0  0  0  0  0  0  0  0  0  0  0
   52.6380   -4.9552   -7.1246 S   0  0  0  0  0  0  0  0  0  0  0  0
   53.3499   -4.9754   -5.7704 O   0  0  0  0  0  0  0  0  0  0  0  0
   52.0058   -6.2565   -7.4165 O   0  0  0  0  0  0  0  0  0  0  0  0
   51.4684   -3.6158   -7.1254 C   0  0  0  0  0  0  0  0  0  0  0  0
   50.0759   -4.0654   -6.8546 C   0  0  0  0  0  0  0  0  0  0  0  0
   49.4408   -3.0001   -5.9462 C   0  0  0  0  0  0  0  0  0  0  0  0
   49.3638   -3.5276   -4.5410 C   0  0  0  0  0  0  0  0  0  0  0  0
   50.5036   -5.0588   -3.0544 C   0  0  0  0  0  0  0  0  0  0  0  0
   49.7255   -4.9569   -4.3603 C   0  0  0  0  0  0  0  0  0  0  0  0
   56.7028   -3.7579  -11.4158 C   0  0  0  0  0  0  0  0  0  0  0  0
   57.5879   -2.9587  -11.3090 O   0  0  0  0  0  0  0  0  0  0  0  0
   56.4757   -4.6100  -12.5804 C   0  0  0  0  0  0  0  0  0  0  0  0
   56.4077   -3.9752  -13.9128 C   0  0  0  0  0  0  0  0  0  0  0  0
   57.4678   -4.0180  -14.8079 N   0  0  0  0  0  0  0  0  0  0  0  0
   58.1629   -3.0916  -15.5638 C   0  0  0  0  0  0  0  0  0  0  0  0
   57.0904   -3.9526  -16.2342 C   0  0  0  0  0  0  0  0  0  0  0  0
   55.8179   -3.2391  -16.5737 C   0  0  0  0  0  0  0  0  0  0  0  0
 16 17  1  0  0  0
 17 15  1  0  0  0
 15 14  1  0  0  0
 14 13  1  0  0  0
 13 12  1  0  0  0
 12  9  1  0  0  0
  9 10  2  0  0  0
  9 11  2  0  0  0
  9  1  1  0  0  0
  1  2  2  0  0  0
  2  3  1  0  0  0
  3  4  2  0  0  0
  4 18  1  0  0  0
 18 19  2  0  0  0
 18 20  1  0  0  0
 20 21  1  0  0  0
 21 22  1  0  0  0
 22 23  1  0  0  0
 23 24  1  0  0  0
 24 25  1  0  0  0
  4  5  1  0  0  0
  5  6  1  0  0  0
  5  7  2  0  0  0
  7  8  1  0  0  0
  7  1  1  0  0  0
 24 22  1  0  0  0
M  END
> <minimizedAffinity>
-7.55497

> <CNNscore>
0.3813379109

> <CNNaffinity>
6.5911493301

> <CNN_VS>
2.5134551525

> <CNNaffinity_variance>
0.0677504838

$$$$
[H]OC([H])([H])C([H])([H])N1C([H])([H])C([H])([H])N(c2c(Cl)c([H])c3nc(SC(C([H])([H])[H])(C([H])([H])[H])C([H])([H])[H])n([H])c3c2[H])[C@]([H])(C([H])([H])[H])C1([H])[H]


 27 29  0  0  0  0  0  0  0  0999 V2000
   53.5091   -5.6434   -5.6972 C   0  0  0  0  0  0  0  0  0  0  0  0
   54.7246   -5.1196   -6.1707 C   0  0  0  0  0  0  0  0  0  0  0  0
   54.8739   -4.6503   -7.4534 C   0  0  0  0  0  0  0  0  0  0  0  0
   55.9348   -4.1198   -8.0890 N   0  0  0  0  0  0  0  0  0  0  0  0
   55.5193   -3.8327   -9.3354 C   0  0  0  0  0  0  0  0  0  0  0  0
   54.2287   -4.1761   -9.4751 N   0  0  0  0  0  0  0  0  0  0  0  0
   53.7775   -4.6930   -8.3245 C   0  0  0  0  0  0  0  0  0  0  0  0
   52.5776   -5.2040   -7.8758 C   0  0  0  0  0  0  0  0  0  0  0  0
   52.4436   -5.6759   -6.5732 C   0  0  0  0  0  0  0  0  0  0  0  0
   50.8815   -6.3278   -6.1143 Cl  0  0  0  0  0  0  0  0  0  0  0  0
   56.8767   -3.9777   -7.6589 H   0  0  0  0  0  0  0  0  0  0  0  0
   54.9294   -8.0616   -4.3716 C   0  0  0  0  0  0  0  0  0  0  0  0
   54.2692   -6.9679   -3.6509 C   0  0  0  0  0  0  0  0  0  0  0  0
   53.3843   -7.6532   -2.6014 C   0  0  0  0  0  0  0  0  0  0  0  0
   53.2172   -6.7472   -1.5045 N   0  0  0  0  0  0  0  0  0  0  0  0
   52.8974   -5.4719   -2.0261 C   0  0  0  0  0  0  0  0  0  0  0  0
   52.3959   -5.5525   -3.4922 C   0  0  0  0  0  0  0  0  0  0  0  0
   53.4244   -6.0709   -4.3672 N   0  0  0  0  0  0  0  0  0  0  0  0
   52.3044   -7.3270   -0.5768 C   0  0  0  0  0  0  0  0  0  0  0  0
   51.0966   -7.9793   -1.1548 C   0  0  0  0  0  0  0  0  0  0  0  0
   49.9787   -7.5214   -0.4292 O   0  0  0  0  0  0  0  0  0  0  0  0
   50.1997   -6.7632    0.1548 H   0  0  0  0  0  0  0  0  0  0  0  0
   56.5589   -3.1045  -10.5870 S   0  0  0  0  0  0  0  0  0  0  0  0
   57.4125   -4.4706  -11.4396 C   0  0  0  0  0  0  0  0  0  0  0  0
   56.4305   -5.0874  -12.4030 C   0  0  0  0  0  0  0  0  0  0  0  0
   58.5497   -3.8943  -12.2607 C   0  0  0  0  0  0  0  0  0  0  0  0
   57.9015   -5.4267  -10.3949 C   0  0  0  0  0  0  0  0  0  0  0  0
 12 13  1  0  0  0
 13 14  1  0  0  0
 14 15  1  0  0  0
 15 19  1  0  0  0
 19 20  1  0  0  0
 20 21  1  0  0  0
 15 16  1  0  0  0
 16 17  1  0  0  0
 17 18  1  0  0  0
 18  1  1  0  0  0
  1  2  2  0  0  0
  2  3  1  0  0  0
  3  4  1  0  0  0
  4  5  1  0  0  0
  5 23  1  0  0  0
 23 24  1  0  0  0
 24 25  1  0  0  0
 24 26  1  0  0  0
 24 27  1  0  0  0
  5  6  2  0  0  0
  6  7  1  0  0  0
  7  8  1  0  0  0
  8  9  2  0  0  0
  9 10  1  0  0  0
 18 13  1  0  0  0
  9  1  1  0  0  0
  7  3  2  0  0  0
 21 22  1  0  0  0
  4 11  1  0  0  0
M  END
> <minimizedAffinity>
-6.24086

> <CNNscore>
0.5390914083

> <CNNaffinity>
6.8662366867

> <CNN_VS>
3.7015292645

> <CNNaffinity_variance>
0.2389136553

$$$$
[H]OC([H])([H])C([H])([H])N1C([H])([H])C([H])([H])N(c2c(Cl)c([H])c3nc(SC(C([H])([H])[H])(C([H])([H])[H])C([H])([H])[H])n([H])c3c2[H])[C@]([H])(C([H])([H])[H])C1([H])[H]


 27 29  0  0  0  0  0  0  0  0999 V2000
   53.4732   -5.8151   -5.7586 C   0  0  0  0  0  0  0  0  0  0  0  0
   54.6889   -5.2715   -6.2089 C   0  0  0  0  0  0  0  0  0  0  0  0
   54.8419   -4.7582   -7.4741 C   0  0  0  0  0  0  0  0  0  0  0  0
   55.9035   -4.2029   -8.0867 N   0  0  0  0  0  0  0  0  0  0  0  0
   55.4923   -3.8747   -9.3243 C   0  0  0  0  0  0  0  0  0  0  0  0
   54.2034   -4.2173   -9.4812 N   0  0  0  0  0  0  0  0  0  0  0  0
   53.7492   -4.7747   -8.3508 C   0  0  0  0  0  0  0  0  0  0  0  0
   52.5492   -5.3045   -7.9248 C   0  0  0  0  0  0  0  0  0  0  0  0
   52.4115   -5.8210   -6.6397 C   0  0  0  0  0  0  0  0  0  0  0  0
   50.8497   -6.4932   -6.2099 Cl  0  0  0  0  0  0  0  0  0  0  0  0
   56.8433   -4.0725   -7.6481 H   0  0  0  0  0  0  0  0  0  0  0  0
   51.3953   -5.0491   -3.5865 C   0  0  0  0  0  0  0  0  0  0  0  0
   52.2991   -6.2028   -3.5246 C   0  0  0  0  0  0  0  0  0  0  0  0
   52.9207   -6.1528   -2.1227 C   0  0  0  0  0  0  0  0  0  0  0  0
   53.2842   -7.4880   -1.7526 N   0  0  0  0  0  0  0  0  0  0  0  0
   53.9603   -8.0831   -2.8433 C   0  0  0  0  0  0  0  0  0  0  0  0
   54.4794   -7.0252   -3.8527 C   0  0  0  0  0  0  0  0  0  0  0  0
   53.3845   -6.2881   -4.4443 N   0  0  0  0  0  0  0  0  0  0  0  0
   53.9663   -7.4388   -0.5026 C   0  0  0  0  0  0  0  0  0  0  0  0
   54.6559   -6.1603   -0.1738 C   0  0  0  0  0  0  0  0  0  0  0  0
   56.0275   -6.3358   -0.4452 O   0  0  0  0  0  0  0  0  0  0  0  0
   56.2046   -7.1623   -0.9457 H   0  0  0  0  0  0  0  0  0  0  0  0
   56.5346   -3.1009  -10.5460 S   0  0  0  0  0  0  0  0  0  0  0  0
   57.4019   -4.4340  -11.4361 C   0  0  0  0  0  0  0  0  0  0  0  0
   56.4249   -5.0362  -12.4139 C   0  0  0  0  0  0  0  0  0  0  0  0
   58.5307   -3.8232  -12.2435 C   0  0  0  0  0  0  0  0  0  0  0  0
   57.9038   -5.4119  -10.4181 C   0  0  0  0  0  0  0  0  0  0  0  0
 12 13  1  0  0  0
 13 14  1  0  0  0
 14 15  1  0  0  0
 15 19  1  0  0  0
 19 20  1  0  0  0
 20 21  1  0  0  0
 15 16  1  0  0  0
 16 17  1  0  0  0
 17 18  1  0  0  0
 18  1  1  0  0  0
  1  2  2  0  0  0
  2  3  1  0  0  0
  3  4  1  0  0  0
  4  5  1  0  0  0
  5 23  1  0  0  0
 23 24  1  0  0  0
 24 25  1  0  0  0
 24 26  1  0  0  0
 24 27  1  0  0  0
  5  6  2  0  0  0
  6  7  1  0  0  0
  7  8  1  0  0  0
  8  9  2  0  0  0
  9 10  1  0  0  0
 18 13  1  0  0  0
  9  1  1  0  0  0
  7  3  2  0  0  0
 21 22  1  0  0  0
  4 11  1  0  0  0
M  END
> <minimizedAffinity>
-5.56408

> <CNNscore>
0.4743306637

> <CNNaffinity>
6.6705560684

> <CNN_VS>
3.1640493870

> <CNNaffinity_variance>
0.3149208426

$$$$
[H]OC([H])([H])C([H])([H])N1C([H])([H])C([H])([H])N(c2c(Cl)c([H])c3nc(SC(C([H])([H])[H])(C([H])([H])[H])C([H])([H])[H])n([H])c3c2[H])[C@]([H])(C([H])([H])[H])C1([H])[H]


 27 29  0  0  0  0  0  0  0  0999 V2000
   54.9640   -5.7230   -5.7716 C   0  0  0  0  0  0  0  0  0  0  0  0
   56.0308   -5.3164   -6.5917 C   0  0  0  0  0  0  0  0  0  0  0  0
   55.8340   -4.7370   -7.8220 C   0  0  0  0  0  0  0  0  0  0  0  0
   56.7055   -4.2861   -8.7428 N   0  0  0  0  0  0  0  0  0  0  0  0
   55.9639   -3.8159   -9.7614 C   0  0  0  0  0  0  0  0  0  0  0  0
   54.6593   -3.9697   -9.4832 N   0  0  0  0  0  0  0  0  0  0  0  0
   54.5243   -4.5422   -8.2796 C   0  0  0  0  0  0  0  0  0  0  0  0
   53.4662   -4.9356   -7.4872 C   0  0  0  0  0  0  0  0  0  0  0  0
   53.6833   -5.5216   -6.2435 C   0  0  0  0  0  0  0  0  0  0  0  0
   52.2678   -6.0073   -5.3291 Cl  0  0  0  0  0  0  0  0  0  0  0  0
   57.7456   -4.3158   -8.6433 H   0  0  0  0  0  0  0  0  0  0  0  0
   56.0957   -4.2923   -3.2626 C   0  0  0  0  0  0  0  0  0  0  0  0
   55.4700   -5.6190   -3.2710 C   0  0  0  0  0  0  0  0  0  0  0  0
   56.4231   -6.5190   -2.4736 C   0  0  0  0  0  0  0  0  0  0  0  0
   55.6530   -7.5853   -1.9064 N   0  0  0  0  0  0  0  0  0  0  0  0
   54.8079   -8.1076   -2.9133 C   0  0  0  0  0  0  0  0  0  0  0  0
   55.2832   -7.7094   -4.3355 C   0  0  0  0  0  0  0  0  0  0  0  0
   55.2430   -6.2748   -4.5159 N   0  0  0  0  0  0  0  0  0  0  0  0
   56.5443   -8.4899   -1.2602 C   0  0  0  0  0  0  0  0  0  0  0  0
   57.9359   -8.5402   -1.7885 C   0  0  0  0  0  0  0  0  0  0  0  0
   58.1947   -9.8698   -2.1770 O   0  0  0  0  0  0  0  0  0  0  0  0
   57.3801  -10.4185   -2.1903 H   0  0  0  0  0  0  0  0  0  0  0  0
   56.6497   -3.1019  -11.2439 S   0  0  0  0  0  0  0  0  0  0  0  0
   57.6067   -4.4093  -12.0784 C   0  0  0  0  0  0  0  0  0  0  0  0
   58.8046   -3.7552  -12.7190 C   0  0  0  0  0  0  0  0  0  0  0  0
   58.1256   -5.3743  -11.0301 C   0  0  0  0  0  0  0  0  0  0  0  0
   56.6994   -5.0825  -13.0623 C   0  0  0  0  0  0  0  0  0  0  0  0
 12 13  1  0  0  0
 13 14  1  0  0  0
 14 15  1  0  0  0
 15 19  1  0  0  0
 19 20  1  0  0  0
 20 21  1  0  0  0
 15 16  1  0  0  0
 16 17  1  0  0  0
 17 18  1  0  0  0
 18  1  1  0  0  0
  1  2  2  0  0  0
  2  3  1  0  0  0
  3  4  1  0  0  0
  4  5  1  0  0  0
  5 23  1  0  0  0
 23 24  1  0  0  0
 24 25  1  0  0  0
 24 26  1  0  0  0
 24 27  1  0  0  0
  5  6  2  0  0  0
  6  7  1  0  0  0
  7  8  1  0  0  0
  8  9  2  0  0  0
  9 10  1  0  0  0
 18 13  1  0  0  0
  9  1  1  0  0  0
  7  3  2  0  0  0
 21 22  1  0  0  0
  4 11  1  0  0  0
M  END
> <minimizedAffinity>
-5.97476

> <CNNscore>
0.4644980431

> <CNNaffinity>
6.4134855270

> <CNN_VS>
2.9790515900

> <CNNaffinity_variance>
0.2730659544

$$$$
[H]OC([H])([H])C([H])([H])N1C([H])([H])C([H])([H])N(c2c(Cl)c([H])c3nc(SC(C([H])([H])[H])(C([H])([H])[H])C([H])([H])[H])n([H])c3c2[H])[C@]([H])(C([H])([H])[H])C1([H])[H]


 27 29  0  0  0  0  0  0  0  0999 V2000
   53.9576   -4.3346   -8.1162 C   0  0  0  0  0  0  0  0  0  0  0  0
   54.1375   -3.9838   -9.4655 C   0  0  0  0  0  0  0  0  0  0  0  0
   55.3492   -4.1040  -10.1019 C   0  0  0  0  0  0  0  0  0  0  0  0
   55.7223   -3.8273  -11.3649 N   0  0  0  0  0  0  0  0  0  0  0  0
   57.0289   -4.1354  -11.4453 C   0  0  0  0  0  0  0  0  0  0  0  0
   57.4620   -4.5939  -10.2599 N   0  0  0  0  0  0  0  0  0  0  0  0
   56.4481   -4.5940   -9.3842 C   0  0  0  0  0  0  0  0  0  0  0  0
   56.2886   -4.9429   -8.0594 C   0  0  0  0  0  0  0  0  0  0  0  0
   55.0540   -4.8142   -7.4296 C   0  0  0  0  0  0  0  0  0  0  0  0
   54.9682   -5.2625   -5.7363 Cl  0  0  0  0  0  0  0  0  0  0  0  0
   55.0874   -3.4489  -12.1040 H   0  0  0  0  0  0  0  0  0  0  0  0
   51.8624   -2.0913   -8.5639 C   0  0  0  0  0  0  0  0  0  0  0  0
   51.5916   -3.3907   -7.9397 C   0  0  0  0  0  0  0  0  0  0  0  0
   50.8089   -3.0678   -6.6602 C   0  0  0  0  0  0  0  0  0  0  0  0
   49.9924   -4.2013   -6.3435 N   0  0  0  0  0  0  0  0  0  0  0  0
   50.7874   -5.3661   -6.4528 C   0  0  0  0  0  0  0  0  0  0  0  0
   52.3040   -5.0402   -6.4198 C   0  0  0  0  0  0  0  0  0  0  0  0
   52.6847   -4.2164   -7.5462 N   0  0  0  0  0  0  0  0  0  0  0  0
   49.3487   -3.9581   -5.0959 C   0  0  0  0  0  0  0  0  0  0  0  0
   48.7372   -2.6119   -4.9169 C   0  0  0  0  0  0  0  0  0  0  0  0
   47.5389   -2.7826   -4.1953 O   0  0  0  0  0  0  0  0  0  0  0  0
   47.4570   -3.6862   -3.8190 H   0  0  0  0  0  0  0  0  0  0  0  0
   58.0053   -3.9485  -12.9250 S   0  0  0  0  0  0  0  0  0  0  0  0
   56.8546   -3.9871  -14.3378 C   0  0  0  0  0  0  0  0  0  0  0  0
   56.2523   -5.3681  -14.3940 C   0  0  0  0  0  0  0  0  0  0  0  0
   55.7248   -3.0120  -14.0696 C   0  0  0  0  0  0  0  0  0  0  0  0
   57.6294   -3.6255  -15.5681 C   0  0  0  0  0  0  0  0  0  0  0  0
 12 13  1  0  0  0
 13 14  1  0  0  0
 14 15  1  0  0  0
 15 19  1  0  0  0
 19 20  1  0  0  0
 20 21  1  0  0  0
 15 16  1  0  0  0
 16 17  1  0  0  0
 17 18  1  0  0  0
 18  1  1  0  0  0
  1  2  2  0  0  0
  2  3  1  0  0  0
  3  4  1  0  0  0
  4  5  1  0  0  0
  5 23  1  0  0  0
 23 24  1  0  0  0
 24 25  1  0  0  0
 24 26  1  0  0  0
 24 27  1  0  0  0
  5  6  2  0  0  0
  6  7  1  0  0  0
  7  8  1  0  0  0
  8  9  2  0  0  0
  9 10  1  0  0  0
 18 13  1  0  0  0
  9  1  1  0  0  0
  7  3  2  0  0  0
 21 22  1  0  0  0
  4 11  1  0  0  0
M  END
> <minimizedAffinity>
-8.10652

> <CNNscore>
0.4125815928

> <CNNaffinity>
6.9404106140

> <CNN_VS>
2.8634855747

> <CNNaffinity_variance>
0.0296313874

$$$$
[H]OC([H])([H])C([H])([H])N1C([H])([H])C([H])([H])N(c2c(Cl)c([H])c3nc(SC(C([H])([H])[H])(C([H])([H])[H])C([H])([H])[H])n([H])c3c2[H])[C@]([H])(C([H])([H])[H])C1([H])[H]


 27 29  0  0  0  0  0  0  0  0999 V2000
   57.2062   -4.2013  -11.2891 C   0  0  0  0  0  0  0  0  0  0  0  0
   55.8788   -3.7649  -11.1356 C   0  0  0  0  0  0  0  0  0  0  0  0
   55.1649   -3.9720   -9.9801 C   0  0  0  0  0  0  0  0  0  0  0  0
   53.9064   -3.6386   -9.6398 N   0  0  0  0  0  0  0  0  0  0  0  0
   53.7265   -4.0873   -8.3849 C   0  0  0  0  0  0  0  0  0  0  0  0
   54.8469   -4.6873   -7.9513 N   0  0  0  0  0  0  0  0  0  0  0  0
   55.7782   -4.6418   -8.9133 C   0  0  0  0  0  0  0  0  0  0  0  0
   57.0802   -5.0766   -9.0475 C   0  0  0  0  0  0  0  0  0  0  0  0
   57.7890   -4.8590  -10.2254 C   0  0  0  0  0  0  0  0  0  0  0  0
   59.4291   -5.4757  -10.2986 Cl  0  0  0  0  0  0  0  0  0  0  0  0
   53.2363   -3.1309  -10.2608 H   0  0  0  0  0  0  0  0  0  0  0  0
   56.0097   -3.9075  -14.1359 C   0  0  0  0  0  0  0  0  0  0  0  0
   57.3570   -3.4876  -13.7360 C   0  0  0  0  0  0  0  0  0  0  0  0
   58.2912   -4.0490  -14.8159 C   0  0  0  0  0  0  0  0  0  0  0  0
   59.4519   -3.2116  -14.8752 N   0  0  0  0  0  0  0  0  0  0  0  0
   59.9003   -2.9794  -13.5539 C   0  0  0  0  0  0  0  0  0  0  0  0
   59.3220   -4.0146  -12.5533 C   0  0  0  0  0  0  0  0  0  0  0  0
   57.8801   -3.9233  -12.4839 N   0  0  0  0  0  0  0  0  0  0  0  0
   60.3769   -3.7885  -15.7926 C   0  0  0  0  0  0  0  0  0  0  0  0
   61.7856   -3.9107  -15.3248 C   0  0  0  0  0  0  0  0  0  0  0  0
   62.0004   -5.2581  -14.9722 O   0  0  0  0  0  0  0  0  0  0  0  0
   61.2686   -5.8416  -15.2703 H   0  0  0  0  0  0  0  0  0  0  0  0
   52.2103   -3.8941   -7.4675 S   0  0  0  0  0  0  0  0  0  0  0  0
   51.7762   -5.5311   -6.7941 C   0  0  0  0  0  0  0  0  0  0  0  0
   50.2741   -5.5901   -6.6795 C   0  0  0  0  0  0  0  0  0  0  0  0
   52.1952   -6.5926   -7.7925 C   0  0  0  0  0  0  0  0  0  0  0  0
   52.4796   -5.6859   -5.4803 C   0  0  0  0  0  0  0  0  0  0  0  0
 12 13  1  0  0  0
 13 14  1  0  0  0
 14 15  1  0  0  0
 15 19  1  0  0  0
 19 20  1  0  0  0
 20 21  1  0  0  0
 15 16  1  0  0  0
 16 17  1  0  0  0
 17 18  1  0  0  0
 18  1  1  0  0  0
  1  2  2  0  0  0
  2  3  1  0  0  0
  3  4  1  0  0  0
  4  5  1  0  0  0
  5 23  1  0  0  0
 23 24  1  0  0  0
 24 25  1  0  0  0
 24 26  1  0  0  0
 24 27  1  0  0  0
  5  6  2  0  0  0
  6  7  1  0  0  0
  7  8  1  0  0  0
  8  9  2  0  0  0
  9 10  1  0  0  0
 18 13  1  0  0  0
  9  1  1  0  0  0
  7  3  2  0  0  0
 21 22  1  0  0  0
  4 11  1  0  0  0
M  END
> <minimizedAffinity>
-5.95152

> <CNNscore>
0.3774456084

> <CNNaffinity>
6.2091717720

> <CNN_VS>
2.3436245918

> <CNNaffinity_variance>
0.0868696794

$$$$
[H]OC([H])([H])C([H])([H])N1C([H])([H])C([H])([H])N(c2c(Cl)c([H])c3nc(SC(C([H])([H])[H])(C([H])([H])[H])C([H])([H])[H])n([H])c3c2[H])[C@]([H])(C([H])([H])[H])C1([H])[H]


 27 29  0  0  0  0  0  0  0  0999 V2000
   56.6724   -4.7353   -9.3640 C   0  0  0  0  0  0  0  0  0  0  0  0
   57.6420   -5.2877   -8.5092 C   0  0  0  0  0  0  0  0  0  0  0  0
   58.8871   -5.6623   -8.9531 C   0  0  0  0  0  0  0  0  0  0  0  0
   59.9376   -6.2002   -8.3067 N   0  0  0  0  0  0  0  0  0  0  0  0
   60.9015   -6.3639   -9.2301 C   0  0  0  0  0  0  0  0  0  0  0  0
   60.4631   -5.9381  -10.4257 N   0  0  0  0  0  0  0  0  0  0  0  0
   59.2067   -5.4889  -10.3061 C   0  0  0  0  0  0  0  0  0  0  0  0
   58.2667   -4.9482  -11.1584 C   0  0  0  0  0  0  0  0  0  0  0  0
   57.0096   -4.5746  -10.6922 C   0  0  0  0  0  0  0  0  0  0  0  0
   55.8820   -3.9212  -11.8658 Cl  0  0  0  0  0  0  0  0  0  0  0  0
   59.9559   -6.4289   -7.2869 H   0  0  0  0  0  0  0  0  0  0  0  0
   55.5032   -5.3932   -6.5672 C   0  0  0  0  0  0  0  0  0  0  0  0
   54.9919   -4.3634   -7.4780 C   0  0  0  0  0  0  0  0  0  0  0  0
   53.4741   -4.5835   -7.5237 C   0  0  0  0  0  0  0  0  0  0  0  0
   52.8550   -3.3301   -7.8359 N   0  0  0  0  0  0  0  0  0  0  0  0
   53.5531   -2.7472   -8.9192 C   0  0  0  0  0  0  0  0  0  0  0  0
   54.4120   -3.7881   -9.6849 C   0  0  0  0  0  0  0  0  0  0  0  0
   55.4379   -4.3462   -8.8315 N   0  0  0  0  0  0  0  0  0  0  0  0
   51.4556   -3.5464   -7.9942 C   0  0  0  0  0  0  0  0  0  0  0  0
   50.5585   -2.7649   -7.0982 C   0  0  0  0  0  0  0  0  0  0  0  0
   50.3002   -1.5308   -7.7275 O   0  0  0  0  0  0  0  0  0  0  0  0
   50.6001   -1.5205   -8.6629 H   0  0  0  0  0  0  0  0  0  0  0  0
   62.5095   -7.0483   -8.8784 S   0  0  0  0  0  0  0  0  0  0  0  0
   62.3811   -8.8553   -9.0790 C   0  0  0  0  0  0  0  0  0  0  0  0
   63.7795   -9.4169   -9.0316 C   0  0  0  0  0  0  0  0  0  0  0  0
   61.6261   -9.4222   -7.8925 C   0  0  0  0  0  0  0  0  0  0  0  0
   61.6763   -9.1224  -10.3738 C   0  0  0  0  0  0  0  0  0  0  0  0
 12 13  1  0  0  0
 13 14  1  0  0  0
 14 15  1  0  0  0
 15 19  1  0  0  0
 19 20  1  0  0  0
 20 21  1  0  0  0
 15 16  1  0  0  0
 16 17  1  0  0  0
 17 18  1  0  0  0
 18  1  1  0  0  0
  1  2  2  0  0  0
  2  3  1  0  0  0
  3  4  1  0  0  0
  4  5  1  0  0  0
  5 23  1  0  0  0
 23 24  1  0  0  0
 24 25  1  0  0  0
 24 26  1  0  0  0
 24 27  1  0  0  0
  5  6  2  0  0  0
  6  7  1  0  0  0
  7  8  1  0  0  0
  8  9  2  0  0  0
  9 10  1  0  0  0
 18 13  1  0  0  0
  9  1  1  0  0  0
  7  3  2  0  0  0
 21 22  1  0  0  0
  4 11  1  0  0  0
M  END
> <minimizedAffinity>
-7.27119

> <CNNscore>
0.3535839319

> <CNNaffinity>
6.1053662300

> <CNN_VS>
2.1587593555

> <CNNaffinity_variance>
0.0494467840

$$$$
[H]OC([H])([H])C([H])([H])N1C([H])([H])C([H])([H])N(c2c(Cl)c([H])c3nc(SC(C([H])([H])[H])(C([H])([H])[H])C([H])([H])[H])n([H])c3c2[H])[C@]([H])(C([H])([H])[H])C1([H])[H]


 27 29  0  0  0  0  0  0  0  0999 V2000
   54.9601   -4.7986   -7.7150 C   0  0  0  0  0  0  0  0  0  0  0  0
   56.1269   -5.0278   -8.4646 C   0  0  0  0  0  0  0  0  0  0  0  0
   56.2697   -4.5860   -9.7578 C   0  0  0  0  0  0  0  0  0  0  0  0
   57.2879   -4.7008  -10.6301 N   0  0  0  0  0  0  0  0  0  0  0  0
   56.8886   -4.0816  -11.7551 C   0  0  0  0  0  0  0  0  0  0  0  0
   55.6496   -3.5913  -11.5893 N   0  0  0  0  0  0  0  0  0  0  0  0
   55.2168   -3.8805  -10.3549 C   0  0  0  0  0  0  0  0  0  0  0  0
   54.0649   -3.6471   -9.6332 C   0  0  0  0  0  0  0  0  0  0  0  0
   53.9365   -4.1023   -8.3241 C   0  0  0  0  0  0  0  0  0  0  0  0
   52.4202   -3.7730   -7.5068 Cl  0  0  0  0  0  0  0  0  0  0  0  0
   58.1923   -5.1847  -10.4293 H   0  0  0  0  0  0  0  0  0  0  0  0
   52.7634   -6.5363   -6.3818 C   0  0  0  0  0  0  0  0  0  0  0  0
   54.0938   -6.2764   -5.8215 C   0  0  0  0  0  0  0  0  0  0  0  0
   53.8448   -5.8730   -4.3623 C   0  0  0  0  0  0  0  0  0  0  0  0
   55.0134   -6.2090   -3.6052 N   0  0  0  0  0  0  0  0  0  0  0  0
   56.1491   -5.7564   -4.3165 C   0  0  0  0  0  0  0  0  0  0  0  0
   55.7803   -4.6941   -5.3856 C   0  0  0  0  0  0  0  0  0  0  0  0
   54.9019   -5.2501   -6.3914 N   0  0  0  0  0  0  0  0  0  0  0  0
   54.8386   -5.7346   -2.2731 C   0  0  0  0  0  0  0  0  0  0  0  0
   53.4651   -5.2945   -1.9011 C   0  0  0  0  0  0  0  0  0  0  0  0
   53.5835   -4.4112   -0.8095 O   0  0  0  0  0  0  0  0  0  0  0  0
   54.5139   -4.1394   -0.6504 H   0  0  0  0  0  0  0  0  0  0  0  0
   57.8863   -3.9525  -13.2267 S   0  0  0  0  0  0  0  0  0  0  0  0
   56.7664   -4.1294  -14.6537 C   0  0  0  0  0  0  0  0  0  0  0  0
   55.8163   -2.9590  -14.6318 C   0  0  0  0  0  0  0  0  0  0  0  0
   57.5832   -4.0246  -15.9269 C   0  0  0  0  0  0  0  0  0  0  0  0
   56.0796   -5.4555  -14.5338 C   0  0  0  0  0  0  0  0  0  0  0  0
 12 13  1  0  0  0
 13 14  1  0  0  0
 14 15  1  0  0  0
 15 19  1  0  0  0
 19 20  1  0  0  0
 20 21  1  0  0  0
 15 16  1  0  0  0
 16 17  1  0  0  0
 17 18  1  0  0  0
 18  1  1  0  0  0
  1  2  2  0  0  0
  2  3  1  0  0  0
  3  4  1  0  0  0
  4  5  1  0  0  0
  5 23  1  0  0  0
 23 24  1  0  0  0
 24 25  1  0  0  0
 24 26  1  0  0  0
 24 27  1  0  0  0
  5  6  2  0  0  0
  6  7  1  0  0  0
  7  8  1  0  0  0
  8  9  2  0  0  0
  9 10  1  0  0  0
 18 13  1  0  0  0
  9  1  1  0  0  0
  7  3  2  0  0  0
 21 22  1  0  0  0
  4 11  1  0  0  0
M  END
> <minimizedAffinity>
-6.26545

> <CNNscore>
0.3236129880

> <CNNaffinity>
6.5621352196

> <CNN_VS>
2.1235921383

> <CNNaffinity_variance>
0.0683306828

$$$$
[H]OC([H])([H])C([H])([H])N1C([H])([H])C([H])([H])N(c2c(Cl)c([H])c3nc(SC(C([H])([H])[H])(C([H])([H])[H])C([H])([H])[H])n([H])c3c2[H])[C@]([H])(C([H])([H])[H])C1([H])[H]


 27 29  0  0  0  0  0  0  0  0999 V2000
   55.5603   -5.4825   -5.3538 C   0  0  0  0  0  0  0  0  0  0  0  0
   56.4623   -4.8670   -6.2390 C   0  0  0  0  0  0  0  0  0  0  0  0
   56.1157   -4.5261   -7.5241 C   0  0  0  0  0  0  0  0  0  0  0  0
   56.8200   -3.9409   -8.5102 N   0  0  0  0  0  0  0  0  0  0  0  0
   55.9856   -3.8458   -9.5605 C   0  0  0  0  0  0  0  0  0  0  0  0
   54.7877   -4.3598   -9.2379 N   0  0  0  0  0  0  0  0  0  0  0  0
   54.8170   -4.7996   -7.9728 C   0  0  0  0  0  0  0  0  0  0  0  0
   53.9196   -5.4032   -7.1169 C   0  0  0  0  0  0  0  0  0  0  0  0
   54.2874   -5.7425   -5.8182 C   0  0  0  0  0  0  0  0  0  0  0  0
   53.0765   -6.5289   -4.8226 Cl  0  0  0  0  0  0  0  0  0  0  0  0
   57.8169   -3.6369   -8.4305 H   0  0  0  0  0  0  0  0  0  0  0  0
   57.8004   -7.4255   -4.4434 C   0  0  0  0  0  0  0  0  0  0  0  0
   57.1703   -6.4045   -3.5996 C   0  0  0  0  0  0  0  0  0  0  0  0
   56.8137   -7.1255   -2.2930 C   0  0  0  0  0  0  0  0  0  0  0  0
   56.7957   -6.1526   -1.2420 N   0  0  0  0  0  0  0  0  0  0  0  0
   56.0665   -5.0267   -1.6910 C   0  0  0  0  0  0  0  0  0  0  0  0
   55.1745   -5.3623   -2.9153 C   0  0  0  0  0  0  0  0  0  0  0  0
   55.9762   -5.7690   -4.0485 N   0  0  0  0  0  0  0  0  0  0  0  0
   56.3536   -6.7894   -0.0465 C   0  0  0  0  0  0  0  0  0  0  0  0
   55.2103   -7.7342   -0.1826 C   0  0  0  0  0  0  0  0  0  0  0  0
   54.0238   -6.9895   -0.0301 O   0  0  0  0  0  0  0  0  0  0  0  0
   54.1873   -6.0212   -0.0510 H   0  0  0  0  0  0  0  0  0  0  0  0
   56.4408   -3.1357  -11.1310 S   0  0  0  0  0  0  0  0  0  0  0  0
   57.4209   -4.3865  -12.0235 C   0  0  0  0  0  0  0  0  0  0  0  0
   56.5046   -5.0564  -13.0160 C   0  0  0  0  0  0  0  0  0  0  0  0
   58.5043   -3.6795  -12.8145 C   0  0  0  0  0  0  0  0  0  0  0  0
   57.9904   -5.3302  -11.0088 C   0  0  0  0  0  0  0  0  0  0  0  0
 12 13  1  0  0  0
 13 14  1  0  0  0
 14 15  1  0  0  0
 15 19  1  0  0  0
 19 20  1  0  0  0
 20 21  1  0  0  0
 15 16  1  0  0  0
 16 17  1  0  0  0
 17 18  1  0  0  0
 18  1  1  0  0  0
  1  2  2  0  0  0
  2  3  1  0  0  0
  3  4  1  0  0  0
  4  5  1  0  0  0
  5 23  1  0  0  0
 23 24  1  0  0  0
 24 25  1  0  0  0
 24 26  1  0  0  0
 24 27  1  0  0  0
  5  6  2  0  0  0
  6  7  1  0  0  0
  7  8  1  0  0  0
  8  9  2  0  0  0
  9 10  1  0  0  0
 18 13  1  0  0  0
  9  1  1  0  0  0
  7  3  2  0  0  0
 21 22  1  0  0  0
  4 11  1  0  0  0
M  END
> <minimizedAffinity>
-4.74309

> <CNNscore>
0.3178376257

> <CNNaffinity>
6.2564668655

> <CNN_VS>
1.9885405302

> <CNNaffinity_variance>
0.2503687441

$$$$
[H]OC([H])([H])C([H])([H])N1C([H])([H])C([H])([H])N(c2c(Cl)c([H])c3nc(SC(C([H])([H])[H])(C([H])([H])[H])C([H])([H])[H])n([H])c3c2[H])[C@]([H])(C([H])([H])[H])C1([H])[H]


 27 29  0  0  0  0  0  0  0  0999 V2000
   54.0042   -4.8928   -7.1391 C   0  0  0  0  0  0  0  0  0  0  0  0
   55.2328   -5.2288   -7.7338 C   0  0  0  0  0  0  0  0  0  0  0  0
   55.6063   -4.7564   -8.9688 C   0  0  0  0  0  0  0  0  0  0  0  0
   56.7189   -4.9565   -9.6987 N   0  0  0  0  0  0  0  0  0  0  0  0
   56.5553   -4.2507  -10.8317 C   0  0  0  0  0  0  0  0  0  0  0  0
   55.3679   -3.6242  -10.8099 N   0  0  0  0  0  0  0  0  0  0  0  0
   54.7344   -3.9084   -9.6641 C   0  0  0  0  0  0  0  0  0  0  0  0
   53.5250   -3.5689   -9.0947 C   0  0  0  0  0  0  0  0  0  0  0  0
   53.1618   -4.0568   -7.8428 C   0  0  0  0  0  0  0  0  0  0  0  0
   51.5910   -3.5828   -7.2234 Cl  0  0  0  0  0  0  0  0  0  0  0  0
   57.5259   -5.5515   -9.4034 H   0  0  0  0  0  0  0  0  0  0  0  0
   55.8960   -5.1222   -4.6915 C   0  0  0  0  0  0  0  0  0  0  0  0
   54.4344   -5.2359   -4.6457 C   0  0  0  0  0  0  0  0  0  0  0  0
   54.1540   -6.4951   -3.8151 C   0  0  0  0  0  0  0  0  0  0  0  0
   52.8672   -6.3442   -3.2042 N   0  0  0  0  0  0  0  0  0  0  0  0
   51.9593   -5.8869   -4.1877 C   0  0  0  0  0  0  0  0  0  0  0  0
   52.4897   -6.1280   -5.6257 C   0  0  0  0  0  0  0  0  0  0  0  0
   53.7084   -5.3858   -5.8630 N   0  0  0  0  0  0  0  0  0  0  0  0
   52.5469   -7.5547   -2.5244 C   0  0  0  0  0  0  0  0  0  0  0  0
   51.6366   -7.4354   -1.3515 C   0  0  0  0  0  0  0  0  0  0  0  0
   52.1119   -6.3772   -0.5514 O   0  0  0  0  0  0  0  0  0  0  0  0
   52.8007   -5.8463   -1.0079 H   0  0  0  0  0  0  0  0  0  0  0  0
   57.7602   -4.1827  -12.1437 S   0  0  0  0  0  0  0  0  0  0  0  0
   56.8410   -4.0801  -13.7141 C   0  0  0  0  0  0  0  0  0  0  0  0
   57.8245   -3.6970  -14.7906 C   0  0  0  0  0  0  0  0  0  0  0  0
   56.3108   -5.4589  -14.0564 C   0  0  0  0  0  0  0  0  0  0  0  0
   55.7380   -3.0823  -13.5336 C   0  0  0  0  0  0  0  0  0  0  0  0
 12 13  1  0  0  0
 13 14  1  0  0  0
 14 15  1  0  0  0
 15 19  1  0  0  0
 19 20  1  0  0  0
 20 21  1  0  0  0
 15 16  1  0  0  0
 16 17  1  0  0  0
 17 18  1  0  0  0
 18  1  1  0  0  0
  1  2  2  0  0  0
  2  3  1  0  0  0
  3  4  1  0  0  0
  4  5  1  0  0  0
  5 23  1  0  0  0
 23 24  1  0  0  0
 24 25  1  0  0  0
 24 26  1  0  0  0
 24 27  1  0  0  0
  5  6  2  0  0  0
  6  7  1  0  0  0
  7  8  1  0  0  0
  8  9  2  0  0  0
  9 10  1  0  0  0
 18 13  1  0  0  0
  9  1  1  0  0  0
  7  3  2  0  0  0
 21 22  1  0  0  0
  4 11  1  0  0  0
M  END
> <minimizedAffinity>
-6.38776

> <CNNscore>
0.2871175110

> <CNNaffinity>
6.5600700378

> <CNN_VS>
1.8835109472

> <CNNaffinity_variance>
0.1167503595

$$$$
[H]c1nc(N([H])S(=O)(=O)c2c([H])c(Cl)c(N(C([H])([H])[H])[C@]3([H])C([H])([H])N(C([H])([H])c4c([H])c([H])c(Cl)c([H])c4[H])C([H])([H])C3([H])[H])c([H])c2F)c([H])s1


 33 36  0  0  0  0  0  0  0  0999 V2000
   56.2653   -4.6901   -8.5623 C   0  0  0  0  0  0  0  0  0  0  0  0
   57.5180   -5.0615   -9.0015 C   0  0  0  0  0  0  0  0  0  0  0  0
   57.8761   -4.9674  -10.3271 C   0  0  0  0  0  0  0  0  0  0  0  0
   59.1221   -5.3393  -10.7494 F   0  0  0  0  0  0  0  0  0  0  0  0
   56.9892   -4.4906  -11.2967 C   0  0  0  0  0  0  0  0  0  0  0  0
   55.7411   -4.1217  -10.8488 C   0  0  0  0  0  0  0  0  0  0  0  0
   55.3903   -4.2194   -9.5190 C   0  0  0  0  0  0  0  0  0  0  0  0
   53.7736   -3.7348   -8.9838 Cl  0  0  0  0  0  0  0  0  0  0  0  0
   57.5022   -4.3665  -12.9652 S   0  0  0  0  0  0  0  0  0  0  0  0
   57.1435   -5.6908  -13.6144 O   0  0  0  0  0  0  0  0  0  0  0  0
   58.9807   -4.2126  -13.0812 O   0  0  0  0  0  0  0  0  0  0  0  0
   56.6899   -3.1462  -13.8395 N   0  0  0  0  0  0  0  0  0  0  0  0
   56.1597   -2.4387  -13.2888 H   0  0  0  0  0  0  0  0  0  0  0  0
   56.7148   -3.0670  -15.2951 C   0  0  0  0  0  0  0  0  0  0  0  0
   57.9056   -2.9649  -15.9781 C   0  0  0  0  0  0  0  0  0  0  0  0
   57.3687   -2.9078  -17.5970 S   0  0  0  0  0  0  0  0  0  0  0  0
   55.6889   -3.0152  -17.3165 C   0  0  0  0  0  0  0  0  0  0  0  0
   55.6284   -3.0891  -15.9991 N   0  0  0  0  0  0  0  0  0  0  0  0
   56.1058   -3.6599   -6.3107 C   0  0  0  0  0  0  0  0  0  0  0  0
   55.8658   -4.7750   -7.2065 N   0  0  0  0  0  0  0  0  0  0  0  0
   55.2258   -5.9382   -6.6863 C   0  0  0  0  0  0  0  0  0  0  0  0
   55.8911   -6.4965   -5.4450 C   0  0  0  0  0  0  0  0  0  0  0  0
   54.7744   -7.3865   -4.9101 C   0  0  0  0  0  0  0  0  0  0  0  0
   53.5709   -6.6595   -5.1599 N   0  0  0  0  0  0  0  0  0  0  0  0
   53.8283   -5.6363   -6.1266 C   0  0  0  0  0  0  0  0  0  0  0  0
   53.0190   -6.1947   -3.9228 C   0  0  0  0  0  0  0  0  0  0  0  0
   51.7937   -5.4077   -4.2030 C   0  0  0  0  0  0  0  0  0  0  0  0
   50.9088   -5.1130   -3.1605 C   0  0  0  0  0  0  0  0  0  0  0  0
   49.7574   -4.3816   -3.3543 C   0  0  0  0  0  0  0  0  0  0  0  0
   49.4446   -3.9129   -4.6089 C   0  0  0  0  0  0  0  0  0  0  0  0
   47.9773   -2.9866   -4.8303 Cl  0  0  0  0  0  0  0  0  0  0  0  0
   50.2860   -4.1807   -5.6556 C   0  0  0  0  0  0  0  0  0  0  0  0
   51.4433   -4.9210   -5.4382 C   0  0  0  0  0  0  0  0  0  0  0  0
 19 20  1  0  0  0
 20  1  1  0  0  0
  1  2  2  0  0  0
  2  3  1  0  0  0
  3  4  1  0  0  0
  3  5  2  0  0  0
  5  9  1  0  0  0
  9 10  2  0  0  0
  9 11  2  0  0  0
  9 12  1  0  0  0
 12 14  1  0  0  0
 14 15  2  0  0  0
 15 16  1  0  0  0
 16 17  1  0  0  0
 17 18  2  0  0  0
  5  6  1  0  0  0
  6  7  2  0  0  0
  7  8  1  0  0  0
 20 21  1  0  0  0
 21 22  1  0  0  0
 22 23  1  0  0  0
 23 24  1  0  0  0
 24 26  1  0  0  0
 26 27  1  0  0  0
 27 28  2  0  0  0
 28 29  1  0  0  0
 29 30  2  0  0  0
 30 31  1  0  0  0
 30 32  1  0  0  0
 32 33  2  0  0  0
 24 25  1  0  0  0
  7  1  1  0  0  0
 25 21  1  0  0  0
 18 14  1  0  0  0
 33 27  1  0  0  0
 12 13  1  0  0  0
M  END
> <minimizedAffinity>
-8.57520

> <CNNscore>
0.2950848043

> <CNNaffinity>
7.1384391785

> <CNN_VS>
2.1064448357

> <CNNaffinity_variance>
0.1092509627

$$$$
[H]c1nc(N([H])S(=O)(=O)c2c([H])c(Cl)c(N(C([H])([H])[H])[C@]3([H])C([H])([H])N(C([H])([H])c4c([H])c([H])c(Cl)c([H])c4[H])C([H])([H])C3([H])[H])c([H])c2F)c([H])s1


 33 36  0  0  0  0  0  0  0  0999 V2000
   55.2484   -6.2503   -4.0868 C   0  0  0  0  0  0  0  0  0  0  0  0
   54.5901   -6.8417   -5.1437 C   0  0  0  0  0  0  0  0  0  0  0  0
   54.6071   -6.2907   -6.4049 C   0  0  0  0  0  0  0  0  0  0  0  0
   53.9499   -6.8876   -7.4445 F   0  0  0  0  0  0  0  0  0  0  0  0
   55.2923   -5.1037   -6.6799 C   0  0  0  0  0  0  0  0  0  0  0  0
   55.9470   -4.5208   -5.6188 C   0  0  0  0  0  0  0  0  0  0  0  0
   55.9246   -5.0792   -4.3584 C   0  0  0  0  0  0  0  0  0  0  0  0
   56.7796   -4.2970   -3.0196 Cl  0  0  0  0  0  0  0  0  0  0  0  0
   55.3042   -4.4580   -8.3064 S   0  0  0  0  0  0  0  0  0  0  0  0
   55.4860   -2.9581   -8.1614 O   0  0  0  0  0  0  0  0  0  0  0  0
   54.0010   -4.6724   -8.9982 O   0  0  0  0  0  0  0  0  0  0  0  0
   56.6021   -5.0280   -9.2571 N   0  0  0  0  0  0  0  0  0  0  0  0
   57.2230   -5.7485   -8.8322 H   0  0  0  0  0  0  0  0  0  0  0  0
   56.8613   -4.5491  -10.6095 C   0  0  0  0  0  0  0  0  0  0  0  0
   55.8308   -4.1389  -11.4247 C   0  0  0  0  0  0  0  0  0  0  0  0
   56.6708   -3.6951  -12.8424 S   0  0  0  0  0  0  0  0  0  0  0  0
   58.2576   -4.0510  -12.3252 C   0  0  0  0  0  0  0  0  0  0  0  0
   58.0600   -4.4904  -11.0953 N   0  0  0  0  0  0  0  0  0  0  0  0
   56.2599   -7.7599   -2.3974 C   0  0  0  0  0  0  0  0  0  0  0  0
   55.2501   -6.7910   -2.7782 N   0  0  0  0  0  0  0  0  0  0  0  0
   54.2769   -6.4081   -1.8089 C   0  0  0  0  0  0  0  0  0  0  0  0
   53.4782   -5.1811   -2.1985 C   0  0  0  0  0  0  0  0  0  0  0  0
   52.2963   -5.3065   -1.2432 C   0  0  0  0  0  0  0  0  0  0  0  0
   52.0167   -6.7057   -1.1831 N   0  0  0  0  0  0  0  0  0  0  0  0
   53.1426   -7.4349   -1.6813 C   0  0  0  0  0  0  0  0  0  0  0  0
   50.7781   -6.9820   -1.8469 C   0  0  0  0  0  0  0  0  0  0  0  0
   50.6425   -6.0805   -3.0168 C   0  0  0  0  0  0  0  0  0  0  0  0
   49.8012   -4.9660   -2.9359 C   0  0  0  0  0  0  0  0  0  0  0  0
   49.6368   -4.0878   -3.9846 C   0  0  0  0  0  0  0  0  0  0  0  0
   50.3137   -4.2924   -5.1643 C   0  0  0  0  0  0  0  0  0  0  0  0
   50.0889   -3.1638   -6.4817 Cl  0  0  0  0  0  0  0  0  0  0  0  0
   51.1470   -5.3727   -5.2824 C   0  0  0  0  0  0  0  0  0  0  0  0
   51.2986   -6.2471   -4.2114 C   0  0  0  0  0  0  0  0  0  0  0  0
 19 20  1  0  0  0
 20  1  1  0  0  0
  1  2  2  0  0  0
  2  3  1  0  0  0
  3  4  1  0  0  0
  3  5  2  0  0  0
  5  9  1  0  0  0
  9 10  2  0  0  0
  9 11  2  0  0  0
  9 12  1  0  0  0
 12 14  1  0  0  0
 14 15  2  0  0  0
 15 16  1  0  0  0
 16 17  1  0  0  0
 17 18  2  0  0  0
  5  6  1  0  0  0
  6  7  2  0  0  0
  7  8  1  0  0  0
 20 21  1  0  0  0
 21 22  1  0  0  0
 22 23  1  0  0  0
 23 24  1  0  0  0
 24 26  1  0  0  0
 26 27  1  0  0  0
 27 28  2  0  0  0
 28 29  1  0  0  0
 29 30  2  0  0  0
 30 31  1  0  0  0
 30 32  1  0  0  0
 32 33  2  0  0  0
 24 25  1  0  0  0
  7  1  1  0  0  0
 25 21  1  0  0  0
 18 14  1  0  0  0
 33 27  1  0  0  0
 12 13  1  0  0  0
M  END
> <minimizedAffinity>
-8.39786

> <CNNscore>
0.2919106781

> <CNNaffinity>
7.3312568665

> <CNN_VS>
2.1400721073

> <CNNaffinity_variance>
0.2269169837

$$$$
[H]c1nc(N([H])S(=O)(=O)c2c([H])c(Cl)c(N(C([H])([H])[H])[C@]3([H])C([H])([H])N(C([H])([H])c4c([H])c([H])c(Cl)c([H])c4[H])C([H])([H])C3([H])[H])c([H])c2F)c([H])s1


 33 36  0  0  0  0  0  0  0  0999 V2000
   56.2789   -4.6990   -8.2854 C   0  0  0  0  0  0  0  0  0  0  0  0
   57.4864   -5.0748   -8.8337 C   0  0  0  0  0  0  0  0  0  0  0  0
   57.7612   -4.8923  -10.1700 C   0  0  0  0  0  0  0  0  0  0  0  0
   58.9630   -5.2696  -10.7011 F   0  0  0  0  0  0  0  0  0  0  0  0
   56.8310   -4.3166  -11.0403 C   0  0  0  0  0  0  0  0  0  0  0  0
   55.6285   -3.9440  -10.4838 C   0  0  0  0  0  0  0  0  0  0  0  0
   55.3613   -4.1307   -9.1442 C   0  0  0  0  0  0  0  0  0  0  0  0
   53.8009   -3.6380   -8.4675 Cl  0  0  0  0  0  0  0  0  0  0  0  0
   57.2390   -4.0832  -12.7260 S   0  0  0  0  0  0  0  0  0  0  0  0
   56.2160   -3.1050  -13.2741 O   0  0  0  0  0  0  0  0  0  0  0  0
   57.0986   -5.3432  -13.5106 O   0  0  0  0  0  0  0  0  0  0  0  0
   58.7769   -3.3824  -12.9648 N   0  0  0  0  0  0  0  0  0  0  0  0
   59.2398   -2.9558  -12.1348 H   0  0  0  0  0  0  0  0  0  0  0  0
   59.4440   -3.3628  -14.2610 C   0  0  0  0  0  0  0  0  0  0  0  0
   60.8171   -3.3231  -14.3498 C   0  0  0  0  0  0  0  0  0  0  0  0
   61.0515   -3.3159  -16.0401 S   0  0  0  0  0  0  0  0  0  0  0  0
   59.4170   -3.3629  -16.5283 C   0  0  0  0  0  0  0  0  0  0  0  0
   58.7791   -3.3817  -15.3718 N   0  0  0  0  0  0  0  0  0  0  0  0
   56.2332   -3.8059   -5.9709 C   0  0  0  0  0  0  0  0  0  0  0  0
   55.9652   -4.8733   -6.9157 N   0  0  0  0  0  0  0  0  0  0  0  0
   55.3859   -6.0817   -6.4284 C   0  0  0  0  0  0  0  0  0  0  0  0
   56.0474   -6.6120   -5.1729 C   0  0  0  0  0  0  0  0  0  0  0  0
   54.9745   -7.5786   -4.6831 C   0  0  0  0  0  0  0  0  0  0  0  0
   53.7348   -6.9271   -4.9628 N   0  0  0  0  0  0  0  0  0  0  0  0
   53.9553   -5.8773   -5.9098 C   0  0  0  0  0  0  0  0  0  0  0  0
   53.1164   -6.5146   -3.7388 C   0  0  0  0  0  0  0  0  0  0  0  0
   51.9311   -5.6797   -4.0509 C   0  0  0  0  0  0  0  0  0  0  0  0
   51.0733   -5.2850   -3.0189 C   0  0  0  0  0  0  0  0  0  0  0  0
   49.9599   -4.5049   -3.2424 C   0  0  0  0  0  0  0  0  0  0  0  0
   49.6594   -4.0862   -4.5175 C   0  0  0  0  0  0  0  0  0  0  0  0
   48.2405   -3.0966   -4.7765 Cl  0  0  0  0  0  0  0  0  0  0  0  0
   50.4752   -4.4520   -5.5548 C   0  0  0  0  0  0  0  0  0  0  0  0
   51.5944   -5.2400   -5.3073 C   0  0  0  0  0  0  0  0  0  0  0  0
 19 20  1  0  0  0
 20  1  1  0  0  0
  1  2  2  0  0  0
  2  3  1  0  0  0
  3  4  1  0  0  0
  3  5  2  0  0  0
  5  9  1  0  0  0
  9 10  2  0  0  0
  9 11  2  0  0  0
  9 12  1  0  0  0
 12 14  1  0  0  0
 14 15  2  0  0  0
 15 16  1  0  0  0
 16 17  1  0  0  0
 17 18  2  0  0  0
  5  6  1  0  0  0
  6  7  2  0  0  0
  7  8  1  0  0  0
 20 21  1  0  0  0
 21 22  1  0  0  0
 22 23  1  0  0  0
 23 24  1  0  0  0
 24 26  1  0  0  0
 26 27  1  0  0  0
 27 28  2  0  0  0
 28 29  1  0  0  0
 29 30  2  0  0  0
 30 31  1  0  0  0
 30 32  1  0  0  0
 32 33  2  0  0  0
 24 25  1  0  0  0
  7  1  1  0  0  0
 25 21  1  0  0  0
 18 14  1  0  0  0
 33 27  1  0  0  0
 12 13  1  0  0  0
M  END
> <minimizedAffinity>
-9.07425

> <CNNscore>
0.2837401927

> <CNNaffinity>
6.9397687912

> <CNN_VS>
1.9690912962

> <CNNaffinity_variance>
0.1080479026

$$$$
[H]c1nc(N([H])S(=O)(=O)c2c([H])c(Cl)c(N(C([H])([H])[H])[C@]3([H])C([H])([H])N(C([H])([H])c4c([H])c([H])c(Cl)c([H])c4[H])C([H])([H])C3([H])[H])c([H])c2F)c([H])s1


 33 36  0  0  0  0  0  0  0  0999 V2000
   55.8248   -5.3178   -7.5831 C   0  0  0  0  0  0  0  0  0  0  0  0
   57.1308   -5.5672   -7.9465 C   0  0  0  0  0  0  0  0  0  0  0  0
   57.6262   -5.1814   -9.1713 C   0  0  0  0  0  0  0  0  0  0  0  0
   58.9238   -5.4350   -9.5192 F   0  0  0  0  0  0  0  0  0  0  0  0
   56.8316   -4.5169  -10.1101 C   0  0  0  0  0  0  0  0  0  0  0  0
   55.5293   -4.2718   -9.7382 C   0  0  0  0  0  0  0  0  0  0  0  0
   55.0409   -4.6620   -8.5093 C   0  0  0  0  0  0  0  0  0  0  0  0
   53.3585   -4.3281   -8.0697 Cl  0  0  0  0  0  0  0  0  0  0  0  0
   57.5167   -4.0249  -11.6434 S   0  0  0  0  0  0  0  0  0  0  0  0
   58.8002   -4.8190  -11.8039 O   0  0  0  0  0  0  0  0  0  0  0  0
   57.8954   -2.5828  -11.6448 O   0  0  0  0  0  0  0  0  0  0  0  0
   56.5280   -4.3988  -12.9835 N   0  0  0  0  0  0  0  0  0  0  0  0
   55.6873   -4.9875  -12.8054 H   0  0  0  0  0  0  0  0  0  0  0  0
   56.8175   -3.9320  -14.3340 C   0  0  0  0  0  0  0  0  0  0  0  0
   55.8115   -3.7800  -15.2612 C   0  0  0  0  0  0  0  0  0  0  0  0
   56.6801   -3.2287  -16.6227 S   0  0  0  0  0  0  0  0  0  0  0  0
   58.2465   -3.2235  -15.9456 C   0  0  0  0  0  0  0  0  0  0  0  0
   58.0213   -3.6438  -14.7138 N   0  0  0  0  0  0  0  0  0  0  0  0
   54.1029   -6.5410   -6.2810 C   0  0  0  0  0  0  0  0  0  0  0  0
   55.2847   -5.7018   -6.3317 N   0  0  0  0  0  0  0  0  0  0  0  0
   55.8739   -5.2839   -5.1023 C   0  0  0  0  0  0  0  0  0  0  0  0
   54.8721   -5.0797   -3.9844 C   0  0  0  0  0  0  0  0  0  0  0  0
   55.8013   -5.0932   -2.7754 C   0  0  0  0  0  0  0  0  0  0  0  0
   56.7802   -6.0896   -3.0730 N   0  0  0  0  0  0  0  0  0  0  0  0
   56.7546   -6.3740   -4.4751 C   0  0  0  0  0  0  0  0  0  0  0  0
   56.5889   -7.2267   -2.2237 C   0  0  0  0  0  0  0  0  0  0  0  0
   55.1494   -7.3447   -1.8871 C   0  0  0  0  0  0  0  0  0  0  0  0
   54.6648   -6.7608   -0.7120 C   0  0  0  0  0  0  0  0  0  0  0  0
   53.3384   -6.8298   -0.3462 C   0  0  0  0  0  0  0  0  0  0  0  0
   52.4381   -7.4909   -1.1488 C   0  0  0  0  0  0  0  0  0  0  0  0
   50.7592   -7.5651   -0.6635 Cl  0  0  0  0  0  0  0  0  0  0  0  0
   52.8740   -8.0758   -2.3078 C   0  0  0  0  0  0  0  0  0  0  0  0
   54.2176   -7.9943   -2.6585 C   0  0  0  0  0  0  0  0  0  0  0  0
 19 20  1  0  0  0
 20  1  1  0  0  0
  1  2  2  0  0  0
  2  3  1  0  0  0
  3  4  1  0  0  0
  3  5  2  0  0  0
  5  9  1  0  0  0
  9 10  2  0  0  0
  9 11  2  0  0  0
  9 12  1  0  0  0
 12 14  1  0  0  0
 14 15  2  0  0  0
 15 16  1  0  0  0
 16 17  1  0  0  0
 17 18  2  0  0  0
  5  6  1  0  0  0
  6  7  2  0  0  0
  7  8  1  0  0  0
 20 21  1  0  0  0
 21 22  1  0  0  0
 22 23  1  0  0  0
 23 24  1  0  0  0
 24 26  1  0  0  0
 26 27  1  0  0  0
 27 28  2  0  0  0
 28 29  1  0  0  0
 29 30  2  0  0  0
 30 31  1  0  0  0
 30 32  1  0  0  0
 32 33  2  0  0  0
 24 25  1  0  0  0
  7  1  1  0  0  0
 25 21  1  0  0  0
 18 14  1  0  0  0
 33 27  1  0  0  0
 12 13  1  0  0  0
M  END
> <minimizedAffinity>
-7.75330

> <CNNscore>
0.2415882647

> <CNNaffinity>
6.6403403282

> <CNN_VS>
1.6042282581

> <CNNaffinity_variance>
0.1658859104

$$$$
[H]c1nc(N([H])S(=O)(=O)c2c([H])c(Cl)c(N(C([H])([H])[H])[C@]3([H])C([H])([H])N(C([H])([H])c4c([H])c([H])c(Cl)c([H])c4[H])C([H])([H])C3([H])[H])c([H])c2F)c([H])s1


 33 36  0  0  0  0  0  0  0  0999 V2000
   56.2014   -4.6655   -8.2713 C   0  0  0  0  0  0  0  0  0  0  0  0
   57.4180   -5.0218   -8.8125 C   0  0  0  0  0  0  0  0  0  0  0  0
   57.6880   -4.8596  -10.1524 C   0  0  0  0  0  0  0  0  0  0  0  0
   58.8990   -5.2172  -10.6764 F   0  0  0  0  0  0  0  0  0  0  0  0
   56.7435   -4.3256  -11.0338 C   0  0  0  0  0  0  0  0  0  0  0  0
   55.5320   -3.9723  -10.4843 C   0  0  0  0  0  0  0  0  0  0  0  0
   55.2697   -4.1383   -9.1410 C   0  0  0  0  0  0  0  0  0  0  0  0
   53.6974   -3.6715   -8.4737 Cl  0  0  0  0  0  0  0  0  0  0  0  0
   57.1455   -4.1163  -12.7241 S   0  0  0  0  0  0  0  0  0  0  0  0
   56.0940   -3.1810  -13.2930 O   0  0  0  0  0  0  0  0  0  0  0  0
   57.0431   -5.3965  -13.4815 O   0  0  0  0  0  0  0  0  0  0  0  0
   58.6619   -3.3753  -12.9779 N   0  0  0  0  0  0  0  0  0  0  0  0
   59.1134   -2.9212  -12.1563 H   0  0  0  0  0  0  0  0  0  0  0  0
   59.3263   -3.3588  -14.2756 C   0  0  0  0  0  0  0  0  0  0  0  0
   60.6997   -3.3539  -14.3675 C   0  0  0  0  0  0  0  0  0  0  0  0
   60.9303   -3.3342  -16.0583 S   0  0  0  0  0  0  0  0  0  0  0  0
   59.2940   -3.3331  -16.5426 C   0  0  0  0  0  0  0  0  0  0  0  0
   58.6586   -3.3480  -15.3848 N   0  0  0  0  0  0  0  0  0  0  0  0
   56.2146   -3.7607   -5.9610 C   0  0  0  0  0  0  0  0  0  0  0  0
   55.8922   -4.8197   -6.8981 N   0  0  0  0  0  0  0  0  0  0  0  0
   55.2652   -5.9995   -6.4000 C   0  0  0  0  0  0  0  0  0  0  0  0
   56.1349   -6.7980   -5.4508 C   0  0  0  0  0  0  0  0  0  0  0  0
   55.0814   -7.6752   -4.7832 C   0  0  0  0  0  0  0  0  0  0  0  0
   53.9421   -6.8288   -4.6251 N   0  0  0  0  0  0  0  0  0  0  0  0
   54.0798   -5.6864   -5.4758 C   0  0  0  0  0  0  0  0  0  0  0  0
   53.7499   -6.5278   -3.2382 C   0  0  0  0  0  0  0  0  0  0  0  0
   55.0716   -6.3166   -2.5995 C   0  0  0  0  0  0  0  0  0  0  0  0
   55.6525   -5.0443   -2.6185 C   0  0  0  0  0  0  0  0  0  0  0  0
   56.8741   -4.7819   -2.0382 C   0  0  0  0  0  0  0  0  0  0  0  0
   57.5674   -5.7908   -1.4111 C   0  0  0  0  0  0  0  0  0  0  0  0
   59.1165   -5.4335   -0.6816 Cl  0  0  0  0  0  0  0  0  0  0  0  0
   57.0317   -7.0505   -1.3714 C   0  0  0  0  0  0  0  0  0  0  0  0
   55.7969   -7.2938   -1.9635 C   0  0  0  0  0  0  0  0  0  0  0  0
 19 20  1  0  0  0
 20  1  1  0  0  0
  1  2  2  0  0  0
  2  3  1  0  0  0
  3  4  1  0  0  0
  3  5  2  0  0  0
  5  9  1  0  0  0
  9 10  2  0  0  0
  9 11  2  0  0  0
  9 12  1  0  0  0
 12 14  1  0  0  0
 14 15  2  0  0  0
 15 16  1  0  0  0
 16 17  1  0  0  0
 17 18  2  0  0  0
  5  6  1  0  0  0
  6  7  2  0  0  0
  7  8  1  0  0  0
 20 21  1  0  0  0
 21 22  1  0  0  0
 22 23  1  0  0  0
 23 24  1  0  0  0
 24 26  1  0  0  0
 26 27  1  0  0  0
 27 28  2  0  0  0
 28 29  1  0  0  0
 29 30  2  0  0  0
 30 31  1  0  0  0
 30 32  1  0  0  0
 32 33  2  0  0  0
 24 25  1  0  0  0
  7  1  1  0  0  0
 25 21  1  0  0  0
 18 14  1  0  0  0
 33 27  1  0  0  0
 12 13  1  0  0  0
M  END
> <minimizedAffinity>
-7.78160

> <CNNscore>
0.2296833396

> <CNNaffinity>
6.2405915260

> <CNN_VS>
1.4333598614

> <CNNaffinity_variance>
0.3996020555

$$$$
[H]c1nc(N([H])S(=O)(=O)c2c([H])c(Cl)c(N(C([H])([H])[H])[C@]3([H])C([H])([H])N(C([H])([H])c4c([H])c([H])c(Cl)c([H])c4[H])C([H])([H])C3([H])[H])c([H])c2F)c([H])s1


 33 36  0  0  0  0  0  0  0  0999 V2000
   56.3446   -6.5419   -2.7782 C   0  0  0  0  0  0  0  0  0  0  0  0
   55.8723   -7.2951   -3.8316 C   0  0  0  0  0  0  0  0  0  0  0  0
   55.7223   -6.7614   -5.0914 C   0  0  0  0  0  0  0  0  0  0  0  0
   55.2527   -7.5196   -6.1276 F   0  0  0  0  0  0  0  0  0  0  0  0
   56.0409   -5.4288   -5.3685 C   0  0  0  0  0  0  0  0  0  0  0  0
   56.5122   -4.6847   -4.3108 C   0  0  0  0  0  0  0  0  0  0  0  0
   56.6592   -5.2271   -3.0518 C   0  0  0  0  0  0  0  0  0  0  0  0
   57.2684   -4.2353   -1.7175 Cl  0  0  0  0  0  0  0  0  0  0  0  0
   55.8563   -4.8055   -6.9933 S   0  0  0  0  0  0  0  0  0  0  0  0
   56.9493   -5.4578   -7.8200 O   0  0  0  0  0  0  0  0  0  0  0  0
   56.0870   -3.3337   -7.0526 O   0  0  0  0  0  0  0  0  0  0  0  0
   54.3678   -5.2207   -7.7181 N   0  0  0  0  0  0  0  0  0  0  0  0
   54.2553   -6.2032   -8.0453 H   0  0  0  0  0  0  0  0  0  0  0  0
   53.2785   -4.2669   -7.8888 C   0  0  0  0  0  0  0  0  0  0  0  0
   52.1452   -4.3401   -7.1109 C   0  0  0  0  0  0  0  0  0  0  0  0
   51.2315   -3.0299   -7.7116 S   0  0  0  0  0  0  0  0  0  0  0  0
   52.3252   -2.4740   -8.8978 C   0  0  0  0  0  0  0  0  0  0  0  0
   53.3312   -3.3205   -8.7708 N   0  0  0  0  0  0  0  0  0  0  0  0
   57.8125   -7.5295   -1.0386 C   0  0  0  0  0  0  0  0  0  0  0  0
   56.5100   -7.0605   -1.4711 N   0  0  0  0  0  0  0  0  0  0  0  0
   55.4215   -7.1376   -0.5532 C   0  0  0  0  0  0  0  0  0  0  0  0
   54.3082   -6.1519   -0.8434 C   0  0  0  0  0  0  0  0  0  0  0  0
   53.1757   -6.7672   -0.0284 C   0  0  0  0  0  0  0  0  0  0  0  0
   53.3305   -8.1780   -0.1872 N   0  0  0  0  0  0  0  0  0  0  0  0
   54.6468   -8.4577   -0.6737 C   0  0  0  0  0  0  0  0  0  0  0  0
   52.2669   -8.6950   -0.9949 C   0  0  0  0  0  0  0  0  0  0  0  0
   51.7584   -7.6164   -1.8767 C   0  0  0  0  0  0  0  0  0  0  0  0
   50.6679   -6.8437   -1.4642 C   0  0  0  0  0  0  0  0  0  0  0  0
   50.1525   -5.8240   -2.2340 C   0  0  0  0  0  0  0  0  0  0  0  0
   50.7132   -5.5357   -3.4564 C   0  0  0  0  0  0  0  0  0  0  0  0
   50.0415   -4.2365   -4.4160 Cl  0  0  0  0  0  0  0  0  0  0  0  0
   51.7825   -6.2700   -3.8954 C   0  0  0  0  0  0  0  0  0  0  0  0
   52.2873   -7.2952   -3.1024 C   0  0  0  0  0  0  0  0  0  0  0  0
 19 20  1  0  0  0
 20  1  1  0  0  0
  1  2  2  0  0  0
  2  3  1  0  0  0
  3  4  1  0  0  0
  3  5  2  0  0  0
  5  9  1  0  0  0
  9 10  2  0  0  0
  9 11  2  0  0  0
  9 12  1  0  0  0
 12 14  1  0  0  0
 14 15  2  0  0  0
 15 16  1  0  0  0
 16 17  1  0  0  0
 17 18  2  0  0  0
  5  6  1  0  0  0
  6  7  2  0  0  0
  7  8  1  0  0  0
 20 21  1  0  0  0
 21 22  1  0  0  0
 22 23  1  0  0  0
 23 24  1  0  0  0
 24 26  1  0  0  0
 26 27  1  0  0  0
 27 28  2  0  0  0
 28 29  1  0  0  0
 29 30  2  0  0  0
 30 31  1  0  0  0
 30 32  1  0  0  0
 32 33  2  0  0  0
 24 25  1  0  0  0
  7  1  1  0  0  0
 25 21  1  0  0  0
 18 14  1  0  0  0
 33 27  1  0  0  0
 12 13  1  0  0  0
M  END
> <minimizedAffinity>
-6.87396

> <CNNscore>
0.2244380265

> <CNNaffinity>
7.1027517319

> <CNN_VS>
1.5941275358

> <CNNaffinity_variance>
0.2908406854

$$$$
[H]c1nc(N([H])S(=O)(=O)c2c([H])c(Cl)c(N(C([H])([H])[H])[C@]3([H])C([H])([H])N(C([H])([H])c4c([H])c([H])c(Cl)c([H])c4[H])C([H])([H])C3([H])[H])c([H])c2F)c([H])s1


 33 36  0  0  0  0  0  0  0  0999 V2000
   55.9307   -4.3424   -8.9466 C   0  0  0  0  0  0  0  0  0  0  0  0
   56.4436   -4.5529  -10.2086 C   0  0  0  0  0  0  0  0  0  0  0  0
   57.6824   -5.1217  -10.3994 C   0  0  0  0  0  0  0  0  0  0  0  0
   58.1794   -5.3249  -11.6567 F   0  0  0  0  0  0  0  0  0  0  0  0
   58.4846   -5.5154   -9.3244 C   0  0  0  0  0  0  0  0  0  0  0  0
   57.9640   -5.3018   -8.0683 C   0  0  0  0  0  0  0  0  0  0  0  0
   56.7222   -4.7311   -7.8860 C   0  0  0  0  0  0  0  0  0  0  0  0
   56.0889   -4.4728   -6.2527 Cl  0  0  0  0  0  0  0  0  0  0  0  0
   60.0414   -6.2574   -9.6212 S   0  0  0  0  0  0  0  0  0  0  0  0
   60.9161   -5.8857   -8.4378 O   0  0  0  0  0  0  0  0  0  0  0  0
   60.6984   -5.7009  -10.8384 O   0  0  0  0  0  0  0  0  0  0  0  0
   59.9838   -7.9622   -9.6828 N   0  0  0  0  0  0  0  0  0  0  0  0
   59.0423   -8.4053   -9.7313 H   0  0  0  0  0  0  0  0  0  0  0  0
   61.1808   -8.7945   -9.6693 C   0  0  0  0  0  0  0  0  0  0  0  0
   61.5846   -9.4348   -8.5196 C   0  0  0  0  0  0  0  0  0  0  0  0
   62.9913  -10.2409   -9.0520 S   0  0  0  0  0  0  0  0  0  0  0  0
   62.9848   -9.7257  -10.6789 C   0  0  0  0  0  0  0  0  0  0  0  0
   61.9066   -8.9644  -10.7279 N   0  0  0  0  0  0  0  0  0  0  0  0
   54.5300   -2.3172   -8.6417 C   0  0  0  0  0  0  0  0  0  0  0  0
   54.6609   -3.7597   -8.7165 N   0  0  0  0  0  0  0  0  0  0  0  0
   53.4900   -4.5570   -8.5536 C   0  0  0  0  0  0  0  0  0  0  0  0
   53.7659   -5.9394   -7.9985 C   0  0  0  0  0  0  0  0  0  0  0  0
   52.3676   -6.3353   -7.5366 C   0  0  0  0  0  0  0  0  0  0  0  0
   51.8014   -5.1373   -7.0041 N   0  0  0  0  0  0  0  0  0  0  0  0
   52.5585   -4.0123   -7.4613 C   0  0  0  0  0  0  0  0  0  0  0  0
   51.6844   -5.2467   -5.5809 C   0  0  0  0  0  0  0  0  0  0  0  0
   50.4443   -4.5620   -5.1416 C   0  0  0  0  0  0  0  0  0  0  0  0
   49.9867   -3.4433   -5.8456 C   0  0  0  0  0  0  0  0  0  0  0  0
   48.8395   -2.7673   -5.4920 C   0  0  0  0  0  0  0  0  0  0  0  0
   48.0998   -3.1881   -4.4116 C   0  0  0  0  0  0  0  0  0  0  0  0
   46.6470   -2.3138   -3.9818 Cl  0  0  0  0  0  0  0  0  0  0  0  0
   48.5153   -4.2798   -3.6967 C   0  0  0  0  0  0  0  0  0  0  0  0
   49.6765   -4.9479   -4.0708 C   0  0  0  0  0  0  0  0  0  0  0  0
 19 20  1  0  0  0
 20  1  1  0  0  0
  1  2  2  0  0  0
  2  3  1  0  0  0
  3  4  1  0  0  0
  3  5  2  0  0  0
  5  9  1  0  0  0
  9 10  2  0  0  0
  9 11  2  0  0  0
  9 12  1  0  0  0
 12 14  1  0  0  0
 14 15  2  0  0  0
 15 16  1  0  0  0
 16 17  1  0  0  0
 17 18  2  0  0  0
  5  6  1  0  0  0
  6  7  2  0  0  0
  7  8  1  0  0  0
 20 21  1  0  0  0
 21 22  1  0  0  0
 22 23  1  0  0  0
 23 24  1  0  0  0
 24 26  1  0  0  0
 26 27  1  0  0  0
 27 28  2  0  0  0
 28 29  1  0  0  0
 29 30  2  0  0  0
 30 31  1  0  0  0
 30 32  1  0  0  0
 32 33  2  0  0  0
 24 25  1  0  0  0
  7  1  1  0  0  0
 25 21  1  0  0  0
 18 14  1  0  0  0
 33 27  1  0  0  0
 12 13  1  0  0  0
M  END
> <minimizedAffinity>
-8.33094

> <CNNscore>
0.2170151472

> <CNNaffinity>
6.7025642395

> <CNN_VS>
1.4545580149

> <CNNaffinity_variance>
0.1136793345

$$$$
[H]c1nc(N([H])S(=O)(=O)c2c([H])c(Cl)c(N(C([H])([H])[H])[C@]3([H])C([H])([H])N(C([H])([H])c4c([H])c([H])c(Cl)c([H])c4[H])C([H])([H])C3([H])[H])c([H])c2F)c([H])s1


 33 36  0  0  0  0  0  0  0  0999 V2000
   56.2058   -4.4685   -8.5067 C   0  0  0  0  0  0  0  0  0  0  0  0
   57.4093   -4.8283   -9.0743 C   0  0  0  0  0  0  0  0  0  0  0  0
   57.6278   -4.7271  -10.4295 C   0  0  0  0  0  0  0  0  0  0  0  0
   58.8263   -5.0874  -10.9797 F   0  0  0  0  0  0  0  0  0  0  0  0
   56.6418   -4.2546  -11.3004 C   0  0  0  0  0  0  0  0  0  0  0  0
   55.4438   -3.8973  -10.7246 C   0  0  0  0  0  0  0  0  0  0  0  0
   55.2330   -4.0020   -9.3661 C   0  0  0  0  0  0  0  0  0  0  0  0
   53.6764   -3.5323   -8.6648 Cl  0  0  0  0  0  0  0  0  0  0  0  0
   56.9787   -4.1211  -13.0125 S   0  0  0  0  0  0  0  0  0  0  0  0
   55.9065   -3.2098  -13.5815 O   0  0  0  0  0  0  0  0  0  0  0  0
   56.8469   -5.4333  -13.7080 O   0  0  0  0  0  0  0  0  0  0  0  0
   58.4845   -3.3950  -13.3567 N   0  0  0  0  0  0  0  0  0  0  0  0
   58.9909   -2.9496  -12.5628 H   0  0  0  0  0  0  0  0  0  0  0  0
   59.0674   -3.3794  -14.6930 C   0  0  0  0  0  0  0  0  0  0  0  0
   60.4163   -3.1734  -14.8743 C   0  0  0  0  0  0  0  0  0  0  0  0
   60.5497   -3.2512  -16.5739 S   0  0  0  0  0  0  0  0  0  0  0  0
   58.9097   -3.5363  -16.9495 C   0  0  0  0  0  0  0  0  0  0  0  0
   58.3475   -3.5569  -15.7544 N   0  0  0  0  0  0  0  0  0  0  0  0
   56.3101   -3.4632   -6.2407 C   0  0  0  0  0  0  0  0  0  0  0  0
   55.9491   -4.5608   -7.1172 N   0  0  0  0  0  0  0  0  0  0  0  0
   55.3384   -5.7148   -6.5440 C   0  0  0  0  0  0  0  0  0  0  0  0
   56.2903   -6.5683   -5.7313 C   0  0  0  0  0  0  0  0  0  0  0  0
   55.2969   -7.4014   -4.9285 C   0  0  0  0  0  0  0  0  0  0  0  0
   54.2355   -6.5018   -4.6068 N   0  0  0  0  0  0  0  0  0  0  0  0
   54.3111   -5.3561   -5.4608 C   0  0  0  0  0  0  0  0  0  0  0  0
   54.2543   -6.2106   -3.2047 C   0  0  0  0  0  0  0  0  0  0  0  0
   53.1685   -6.9684   -2.5367 C   0  0  0  0  0  0  0  0  0  0  0  0
   51.9463   -6.3397   -2.2769 C   0  0  0  0  0  0  0  0  0  0  0  0
   50.8970   -6.9902   -1.6654 C   0  0  0  0  0  0  0  0  0  0  0  0
   51.0313   -8.3057   -1.2872 C   0  0  0  0  0  0  0  0  0  0  0  0
   49.6852   -9.1105   -0.5124 Cl  0  0  0  0  0  0  0  0  0  0  0  0
   52.2128   -8.9561   -1.5245 C   0  0  0  0  0  0  0  0  0  0  0  0
   53.2596   -8.2807   -2.1432 C   0  0  0  0  0  0  0  0  0  0  0  0
 19 20  1  0  0  0
 20  1  1  0  0  0
  1  2  2  0  0  0
  2  3  1  0  0  0
  3  4  1  0  0  0
  3  5  2  0  0  0
  5  9  1  0  0  0
  9 10  2  0  0  0
  9 11  2  0  0  0
  9 12  1  0  0  0
 12 14  1  0  0  0
 14 15  2  0  0  0
 15 16  1  0  0  0
 16 17  1  0  0  0
 17 18  2  0  0  0
  5  6  1  0  0  0
  6  7  2  0  0  0
  7  8  1  0  0  0
 20 21  1  0  0  0
 21 22  1  0  0  0
 22 23  1  0  0  0
 23 24  1  0  0  0
 24 26  1  0  0  0
 26 27  1  0  0  0
 27 28  2  0  0  0
 28 29  1  0  0  0
 29 30  2  0  0  0
 30 31  1  0  0  0
 30 32  1  0  0  0
 32 33  2  0  0  0
 24 25  1  0  0  0
  7  1  1  0  0  0
 25 21  1  0  0  0
 18 14  1  0  0  0
 33 27  1  0  0  0
 12 13  1  0  0  0
M  END
> <minimizedAffinity>
-8.00910

> <CNNscore>
0.2159233838

> <CNNaffinity>
6.2906923294

> <CNN_VS>
1.3583076000

> <CNNaffinity_variance>
0.1937100291

$$$$
[H]c1nc(N([H])S(=O)(=O)c2c([H])c(Cl)c(N(C([H])([H])[H])[C@]3([H])C([H])([H])N(C([H])([H])c4c([H])c([H])c(Cl)c([H])c4[H])C([H])([H])C3([H])[H])c([H])c2F)c([H])s1


 33 36  0  0  0  0  0  0  0  0999 V2000
   55.8540   -5.5047   -7.3536 C   0  0  0  0  0  0  0  0  0  0  0  0
   57.1753   -5.6547   -7.7163 C   0  0  0  0  0  0  0  0  0  0  0  0
   57.6421   -5.2269   -8.9384 C   0  0  0  0  0  0  0  0  0  0  0  0
   58.9553   -5.3817   -9.2857 F   0  0  0  0  0  0  0  0  0  0  0  0
   56.8015   -4.6184   -9.8750 C   0  0  0  0  0  0  0  0  0  0  0  0
   55.4842   -4.4725   -9.5039 C   0  0  0  0  0  0  0  0  0  0  0  0
   55.0247   -4.9041   -8.2778 C   0  0  0  0  0  0  0  0  0  0  0  0
   53.3216   -4.6981   -7.8391 Cl  0  0  0  0  0  0  0  0  0  0  0  0
   57.4500   -4.0691  -11.4049 S   0  0  0  0  0  0  0  0  0  0  0  0
   58.7705   -4.7950  -11.5860 O   0  0  0  0  0  0  0  0  0  0  0  0
   57.7557   -2.6099  -11.3861 O   0  0  0  0  0  0  0  0  0  0  0  0
   56.4717   -4.4716  -12.7443 N   0  0  0  0  0  0  0  0  0  0  0  0
   55.6177   -5.0380  -12.5570 H   0  0  0  0  0  0  0  0  0  0  0  0
   56.7873   -4.0582  -14.1063 C   0  0  0  0  0  0  0  0  0  0  0  0
   55.8360   -4.1093  -15.0999 C   0  0  0  0  0  0  0  0  0  0  0  0
   56.7135   -3.5322  -16.4449 S   0  0  0  0  0  0  0  0  0  0  0  0
   58.2145   -3.2637  -15.6789 C   0  0  0  0  0  0  0  0  0  0  0  0
   57.9642   -3.6299  -14.4348 N   0  0  0  0  0  0  0  0  0  0  0  0
   54.4312   -7.0608   -6.0458 C   0  0  0  0  0  0  0  0  0  0  0  0
   55.3424   -5.9341   -6.1051 N   0  0  0  0  0  0  0  0  0  0  0  0
   55.6995   -5.2849   -4.8868 C   0  0  0  0  0  0  0  0  0  0  0  0
   54.6053   -5.3093   -3.8393 C   0  0  0  0  0  0  0  0  0  0  0  0
   55.4122   -4.9745   -2.5895 C   0  0  0  0  0  0  0  0  0  0  0  0
   56.6537   -5.6603   -2.7566 N   0  0  0  0  0  0  0  0  0  0  0  0
   56.8090   -6.0294   -4.1304 C   0  0  0  0  0  0  0  0  0  0  0  0
   56.7366   -6.7470   -1.8275 C   0  0  0  0  0  0  0  0  0  0  0  0
   58.1517   -6.9350   -1.4253 C   0  0  0  0  0  0  0  0  0  0  0  0
   58.9664   -7.8081   -2.1536 C   0  0  0  0  0  0  0  0  0  0  0  0
   60.2897   -8.0215   -1.8349 C   0  0  0  0  0  0  0  0  0  0  0  0
   60.8533   -7.3641   -0.7664 C   0  0  0  0  0  0  0  0  0  0  0  0
   62.5352   -7.6514   -0.3810 Cl  0  0  0  0  0  0  0  0  0  0  0  0
   60.0880   -6.5010   -0.0285 C   0  0  0  0  0  0  0  0  0  0  0  0
   58.7540   -6.2999   -0.3675 C   0  0  0  0  0  0  0  0  0  0  0  0
 19 20  1  0  0  0
 20  1  1  0  0  0
  1  2  2  0  0  0
  2  3  1  0  0  0
  3  4  1  0  0  0
  3  5  2  0  0  0
  5  9  1  0  0  0
  9 10  2  0  0  0
  9 11  2  0  0  0
  9 12  1  0  0  0
 12 14  1  0  0  0
 14 15  2  0  0  0
 15 16  1  0  0  0
 16 17  1  0  0  0
 17 18  2  0  0  0
  5  6  1  0  0  0
  6  7  2  0  0  0
  7  8  1  0  0  0
 20 21  1  0  0  0
 21 22  1  0  0  0
 22 23  1  0  0  0
 23 24  1  0  0  0
 24 26  1  0  0  0
 26 27  1  0  0  0
 27 28  2  0  0  0
 28 29  1  0  0  0
 29 30  2  0  0  0
 30 31  1  0  0  0
 30 32  1  0  0  0
 32 33  2  0  0  0
 24 25  1  0  0  0
  7  1  1  0  0  0
 25 21  1  0  0  0
 18 14  1  0  0  0
 33 27  1  0  0  0
 12 13  1  0  0  0
M  END
> <minimizedAffinity>
-6.92429

> <CNNscore>
0.2147057950

> <CNNaffinity>
6.3363504410

> <CNN_VS>
1.3604511023

> <CNNaffinity_variance>
0.2926845253

$$$$
[H]OC1([H])C([H])([H])OC([H])([H])C([H])([H])C1(c1c([H])c([H])c(C(F)(F)F)c([H])c1F)N([H])C(=O)c1c([H])nn2c([H])c(C([H])([H])[H])c([H])nc12


 33 36  0  0  0  0  0  0  0  0999 V2000
   55.2496   -4.9139  -11.1320 C   0  0  0  0  0  0  0  0  0  0  0  0
   55.2400   -6.0654  -11.9581 C   0  0  0  0  0  0  0  0  0  0  0  0
   54.7031   -5.9655  -13.3779 C   0  0  0  0  0  0  0  0  0  0  0  0
   54.2958   -4.7644  -13.8291 O   0  0  0  0  0  0  0  0  0  0  0  0
   54.9501   -3.6931  -13.3537 C   0  0  0  0  0  0  0  0  0  0  0  0
   55.5135   -3.6646  -12.0104 C   0  0  0  0  0  0  0  0  0  0  0  0
   56.8991   -3.4299  -12.1222 O   0  0  0  0  0  0  0  0  0  0  0  0
   57.1176   -2.4981  -12.0038 H   0  0  0  0  0  0  0  0  0  0  0  0
   54.2091   -4.4977  -10.2069 C   0  0  0  0  0  0  0  0  0  0  0  0
   52.9034   -4.4712  -10.7277 C   0  0  0  0  0  0  0  0  0  0  0  0
   51.7941   -4.2350   -9.9491 C   0  0  0  0  0  0  0  0  0  0  0  0
   51.8849   -4.0080   -8.6157 C   0  0  0  0  0  0  0  0  0  0  0  0
   53.1658   -4.0273   -8.0605 C   0  0  0  0  0  0  0  0  0  0  0  0
   54.2595   -4.2696   -8.8729 C   0  0  0  0  0  0  0  0  0  0  0  0
   55.4532   -4.2336   -8.2776 F   0  0  0  0  0  0  0  0  0  0  0  0
   50.6899   -3.7934   -7.7674 C   0  0  0  0  0  0  0  0  0  0  0  0
   50.8354   -2.6321   -6.9993 F   0  0  0  0  0  0  0  0  0  0  0  0
   49.5866   -3.7069   -8.5841 F   0  0  0  0  0  0  0  0  0  0  0  0
   50.4148   -4.8752   -6.9342 F   0  0  0  0  0  0  0  0  0  0  0  0
   57.5724   -5.6767  -10.8049 C   0  0  0  0  0  0  0  0  0  0  0  0
   57.4590   -6.2586  -11.9224 O   0  0  0  0  0  0  0  0  0  0  0  0
   56.4765   -4.9069  -10.2702 N   0  0  0  0  0  0  0  0  0  0  0  0
   56.5781   -4.4412   -9.3852 H   0  0  0  0  0  0  0  0  0  0  0  0
   64.1648   -6.0365  -11.9508 C   0  0  0  0  0  0  0  0  0  0  0  0
   62.7192   -5.9628  -11.5344 C   0  0  0  0  0  0  0  0  0  0  0  0
   61.7181   -5.6696  -12.4340 C   0  0  0  0  0  0  0  0  0  0  0  0
   60.4311   -5.6125  -12.0425 N   0  0  0  0  0  0  0  0  0  0  0  0
   60.1055   -5.8422  -10.7675 C   0  0  0  0  0  0  0  0  0  0  0  0
   58.8429   -5.8646  -10.1533 C   0  0  0  0  0  0  0  0  0  0  0  0
   59.1191   -6.1667   -8.8540 C   0  0  0  0  0  0  0  0  0  0  0  0
   60.4536   -6.3161   -8.7122 N   0  0  0  0  0  0  0  0  0  0  0  0
   61.0502   -6.1226   -9.8806 N   0  0  0  0  0  0  0  0  0  0  0  0
   62.3648   -6.1946  -10.2084 C   0  0  0  0  0  0  0  0  0  0  0  0
 24 25  1  0  0  0
 25 26  1  0  0  0
 26 27  2  0  0  0
 27 28  1  0  0  0
 28 29  2  0  0  0
 29 20  1  0  0  0
 20 21  2  0  0  0
 20 22  1  0  0  0
 22  1  1  0  0  0
  1  9  1  0  0  0
  9 10  2  0  0  0
 10 11  1  0  0  0
 11 12  2  0  0  0
 12 16  1  0  0  0
 16 17  1  0  0  0
 16 18  1  0  0  0
 16 19  1  0  0  0
 12 13  1  0  0  0
 13 14  2  0  0  0
 14 15  1  0  0  0
  1  2  1  0  0  0
  2  3  1  0  0  0
  3  4  1  0  0  0
  4  5  1  0  0  0
  5  6  1  0  0  0
  6  7  1  0  0  0
 29 30  1  0  0  0
 30 31  2  0  0  0
 31 32  1  0  0  0
 32 33  1  0  0  0
 33 25  2  0  0  0
 32 28  1  0  0  0
  6  1  1  0  0  0
 14  9  1  0  0  0
 22 23  1  0  0  0
  7  8  1  0  0  0
M  END
> <minimizedAffinity>
18.77484

> <CNNscore>
0.4648901820

> <CNNaffinity>
5.6461644173

> <CNN_VS>
2.6248464584

> <CNNaffinity_variance>
0.5687344670

$$$$
[H]OC1([H])C([H])([H])OC([H])([H])C([H])([H])C1(c1c([H])c([H])c(C(F)(F)F)c([H])c1F)N([H])C(=O)c1c([H])nn2c([H])c(C([H])([H])[H])c([H])nc12


 33 36  0  0  0  0  0  0  0  0999 V2000
   55.6538   -5.7927   -5.0861 C   0  0  0  0  0  0  0  0  0  0  0  0
   56.3496   -4.7591   -4.4110 C   0  0  0  0  0  0  0  0  0  0  0  0
   56.4090   -4.7633   -2.8909 C   0  0  0  0  0  0  0  0  0  0  0  0
   55.8367   -5.7851   -2.2272 O   0  0  0  0  0  0  0  0  0  0  0  0
   55.8580   -6.9811   -2.8362 C   0  0  0  0  0  0  0  0  0  0  0  0
   55.8086   -7.1113   -4.2864 C   0  0  0  0  0  0  0  0  0  0  0  0
   56.9646   -7.8024   -4.7030 O   0  0  0  0  0  0  0  0  0  0  0  0
   56.7970   -8.7441   -4.8256 H   0  0  0  0  0  0  0  0  0  0  0  0
   54.2612   -5.7777   -5.5008 C   0  0  0  0  0  0  0  0  0  0  0  0
   54.0182   -6.1356   -6.8385 C   0  0  0  0  0  0  0  0  0  0  0  0
   52.7513   -6.3047   -7.3474 C   0  0  0  0  0  0  0  0  0  0  0  0
   51.6413   -6.1347   -6.5880 C   0  0  0  0  0  0  0  0  0  0  0  0
   51.8414   -5.7797   -5.2526 C   0  0  0  0  0  0  0  0  0  0  0  0
   53.1297   -5.6194   -4.7735 C   0  0  0  0  0  0  0  0  0  0  0  0
   53.2397   -5.2417   -3.4985 F   0  0  0  0  0  0  0  0  0  0  0  0
   50.2773   -6.3551   -7.1216 C   0  0  0  0  0  0  0  0  0  0  0  0
   50.2339   -7.5245   -7.8900 F   0  0  0  0  0  0  0  0  0  0  0  0
   49.4029   -6.4307   -6.0627 F   0  0  0  0  0  0  0  0  0  0  0  0
   49.8096   -5.2813   -7.8755 F   0  0  0  0  0  0  0  0  0  0  0  0
   56.8636   -5.0196   -7.0917 C   0  0  0  0  0  0  0  0  0  0  0  0
   56.7042   -3.8473   -6.6438 O   0  0  0  0  0  0  0  0  0  0  0  0
   56.3693   -6.1550   -6.3529 N   0  0  0  0  0  0  0  0  0  0  0  0
   56.5075   -7.0836   -6.7123 H   0  0  0  0  0  0  0  0  0  0  0  0
   56.1309   -3.7939  -13.6388 C   0  0  0  0  0  0  0  0  0  0  0  0
   56.4512   -4.1050  -12.2002 C   0  0  0  0  0  0  0  0  0  0  0  0
   55.5687   -3.8208  -11.1816 C   0  0  0  0  0  0  0  0  0  0  0  0
   55.8723   -4.1105   -9.9022 N   0  0  0  0  0  0  0  0  0  0  0  0
   57.0414   -4.6828   -9.6017 C   0  0  0  0  0  0  0  0  0  0  0  0
   57.5463   -5.0938   -8.3576 C   0  0  0  0  0  0  0  0  0  0  0  0
   58.7655   -5.6209   -8.6600 C   0  0  0  0  0  0  0  0  0  0  0  0
   58.9647   -5.5303   -9.9925 N   0  0  0  0  0  0  0  0  0  0  0  0
   57.9104   -4.9630  -10.5629 N   0  0  0  0  0  0  0  0  0  0  0  0
   57.6676   -4.6964  -11.8709 C   0  0  0  0  0  0  0  0  0  0  0  0
 24 25  1  0  0  0
 25 26  1  0  0  0
 26 27  2  0  0  0
 27 28  1  0  0  0
 28 29  2  0  0  0
 29 20  1  0  0  0
 20 21  2  0  0  0
 20 22  1  0  0  0
 22  1  1  0  0  0
  1  9  1  0  0  0
  9 10  2  0  0  0
 10 11  1  0  0  0
 11 12  2  0  0  0
 12 16  1  0  0  0
 16 17  1  0  0  0
 16 18  1  0  0  0
 16 19  1  0  0  0
 12 13  1  0  0  0
 13 14  2  0  0  0
 14 15  1  0  0  0
  1  2  1  0  0  0
  2  3  1  0  0  0
  3  4  1  0  0  0
  4  5  1  0  0  0
  5  6  1  0  0  0
  6  7  1  0  0  0
 29 30  1  0  0  0
 30 31  2  0  0  0
 31 32  1  0  0  0
 32 33  1  0  0  0
 33 25  2  0  0  0
 32 28  1  0  0  0
  6  1  1  0  0  0
 14  9  1  0  0  0
 22 23  1  0  0  0
  7  8  1  0  0  0
M  END
> <minimizedAffinity>
-9.20622

> <CNNscore>
0.3739180267

> <CNNaffinity>
6.5953130722

> <CNN_VS>
2.4661064148

> <CNNaffinity_variance>
0.4004301429

$$$$
[H]OC1([H])C([H])([H])OC([H])([H])C([H])([H])C1(c1c([H])c([H])c(C(F)(F)F)c([H])c1F)N([H])C(=O)c1c([H])nn2c([H])c(C([H])([H])[H])c([H])nc12


 33 36  0  0  0  0  0  0  0  0999 V2000
   56.5384   -4.3569  -12.5916 C   0  0  0  0  0  0  0  0  0  0  0  0
   56.2821   -3.1410  -13.2728 C   0  0  0  0  0  0  0  0  0  0  0  0
   56.6491   -3.0133  -14.7436 C   0  0  0  0  0  0  0  0  0  0  0  0
   57.1650   -4.0852  -15.3736 O   0  0  0  0  0  0  0  0  0  0  0  0
   56.7336   -5.2873  -14.9606 C   0  0  0  0  0  0  0  0  0  0  0  0
   56.3495   -5.5376  -13.5777 C   0  0  0  0  0  0  0  0  0  0  0  0
   55.0084   -5.9722  -13.5682 O   0  0  0  0  0  0  0  0  0  0  0  0
   54.9413   -6.9337  -13.5376 H   0  0  0  0  0  0  0  0  0  0  0  0
   57.7334   -4.6972  -11.8380 C   0  0  0  0  0  0  0  0  0  0  0  0
   57.5281   -5.4780  -10.6870 C   0  0  0  0  0  0  0  0  0  0  0  0
   58.5624   -5.9990   -9.9444 C   0  0  0  0  0  0  0  0  0  0  0  0
   59.8611   -5.7920  -10.2736 C   0  0  0  0  0  0  0  0  0  0  0  0
   60.1061   -5.0217  -11.4119 C   0  0  0  0  0  0  0  0  0  0  0  0
   59.0417   -4.5144  -12.1363 C   0  0  0  0  0  0  0  0  0  0  0  0
   59.3552   -3.7558  -13.1883 F   0  0  0  0  0  0  0  0  0  0  0  0
   60.9765   -6.3846   -9.5000 C   0  0  0  0  0  0  0  0  0  0  0  0
   61.0519   -5.8075   -8.2268 F   0  0  0  0  0  0  0  0  0  0  0  0
   60.7723   -7.7419   -9.4126 F   0  0  0  0  0  0  0  0  0  0  0  0
   62.2065   -6.2645  -10.1427 F   0  0  0  0  0  0  0  0  0  0  0  0
   55.3814   -3.7093  -10.5117 C   0  0  0  0  0  0  0  0  0  0  0  0
   56.1920   -2.7400  -10.4515 O   0  0  0  0  0  0  0  0  0  0  0  0
   55.4403   -4.6408  -11.6109 N   0  0  0  0  0  0  0  0  0  0  0  0
   54.7871   -5.4035  -11.6550 H   0  0  0  0  0  0  0  0  0  0  0  0
   54.4369   -6.4682   -4.4785 C   0  0  0  0  0  0  0  0  0  0  0  0
   54.5120   -5.7642   -5.8080 C   0  0  0  0  0  0  0  0  0  0  0  0
   55.6313   -5.8385   -6.6073 C   0  0  0  0  0  0  0  0  0  0  0  0
   55.6770   -5.2051   -7.7945 N   0  0  0  0  0  0  0  0  0  0  0  0
   54.6292   -4.4919   -8.2167 C   0  0  0  0  0  0  0  0  0  0  0  0
   54.4493   -3.7848   -9.4164 C   0  0  0  0  0  0  0  0  0  0  0  0
   53.1920   -3.2722   -9.3058 C   0  0  0  0  0  0  0  0  0  0  0  0
   52.6647   -3.6542   -8.1228 N   0  0  0  0  0  0  0  0  0  0  0  0
   53.5411   -4.4008   -7.4648 N   0  0  0  0  0  0  0  0  0  0  0  0
   53.4303   -5.0131   -6.2590 C   0  0  0  0  0  0  0  0  0  0  0  0
 24 25  1  0  0  0
 25 26  1  0  0  0
 26 27  2  0  0  0
 27 28  1  0  0  0
 28 29  2  0  0  0
 29 20  1  0  0  0
 20 21  2  0  0  0
 20 22  1  0  0  0
 22  1  1  0  0  0
  1  9  1  0  0  0
  9 10  2  0  0  0
 10 11  1  0  0  0
 11 12  2  0  0  0
 12 16  1  0  0  0
 16 17  1  0  0  0
 16 18  1  0  0  0
 16 19  1  0  0  0
 12 13  1  0  0  0
 13 14  2  0  0  0
 14 15  1  0  0  0
  1  2  1  0  0  0
  2  3  1  0  0  0
  3  4  1  0  0  0
  4  5  1  0  0  0
  5  6  1  0  0  0
  6  7  1  0  0  0
 29 30  1  0  0  0
 30 31  2  0  0  0
 31 32  1  0  0  0
 32 33  1  0  0  0
 33 25  2  0  0  0
 32 28  1  0  0  0
  6  1  1  0  0  0
 14  9  1  0  0  0
 22 23  1  0  0  0
  7  8  1  0  0  0
M  END
> <minimizedAffinity>
-2.77386

> <CNNscore>
0.3124579787

> <CNNaffinity>
5.8965415955

> <CNN_VS>
1.8424214125

> <CNNaffinity_variance>
0.2534134090

$$$$
[H]OC1([H])C([H])([H])OC([H])([H])C([H])([H])C1(c1c([H])c([H])c(C(F)(F)F)c([H])c1F)N([H])C(=O)c1c([H])nn2c([H])c(C([H])([H])[H])c([H])nc12


 33 36  0  0  0  0  0  0  0  0999 V2000
   55.6243   -5.7300   -5.0928 C   0  0  0  0  0  0  0  0  0  0  0  0
   56.3481   -4.7135   -4.4212 C   0  0  0  0  0  0  0  0  0  0  0  0
   56.4649   -4.7527   -2.9049 C   0  0  0  0  0  0  0  0  0  0  0  0
   55.9152   -5.7883   -2.2435 O   0  0  0  0  0  0  0  0  0  0  0  0
   55.9100   -6.9700   -2.8800 C   0  0  0  0  0  0  0  0  0  0  0  0
   55.8054   -7.0669   -4.3299 C   0  0  0  0  0  0  0  0  0  0  0  0
   56.9428   -7.7505   -4.8057 O   0  0  0  0  0  0  0  0  0  0  0  0
   56.7680   -8.6889   -4.9433 H   0  0  0  0  0  0  0  0  0  0  0  0
   54.2170   -5.7026   -5.4540 C   0  0  0  0  0  0  0  0  0  0  0  0
   53.9237   -6.0161   -6.7928 C   0  0  0  0  0  0  0  0  0  0  0  0
   52.6384   -6.1695   -7.2589 C   0  0  0  0  0  0  0  0  0  0  0  0
   51.5579   -6.0260   -6.4530 C   0  0  0  0  0  0  0  0  0  0  0  0
   51.8084   -5.7153   -5.1151 C   0  0  0  0  0  0  0  0  0  0  0  0
   53.1138   -5.5697   -4.6798 C   0  0  0  0  0  0  0  0  0  0  0  0
   53.2719   -5.2344   -3.3979 F   0  0  0  0  0  0  0  0  0  0  0  0
   50.1747   -6.2300   -6.9418 C   0  0  0  0  0  0  0  0  0  0  0  0
   50.0860   -7.4137   -7.6840 F   0  0  0  0  0  0  0  0  0  0  0  0
   49.3308   -6.2666   -5.8565 F   0  0  0  0  0  0  0  0  0  0  0  0
   49.7058   -5.1626   -7.7040 F   0  0  0  0  0  0  0  0  0  0  0  0
   56.5888   -4.9151   -7.2117 C   0  0  0  0  0  0  0  0  0  0  0  0
   56.3171   -3.7502   -6.8001 O   0  0  0  0  0  0  0  0  0  0  0  0
   56.2903   -6.0646   -6.3938 N   0  0  0  0  0  0  0  0  0  0  0  0
   56.5170   -6.9861   -6.7253 H   0  0  0  0  0  0  0  0  0  0  0  0
   62.1828   -6.6540  -10.4653 C   0  0  0  0  0  0  0  0  0  0  0  0
   60.8594   -6.2355   -9.8804 C   0  0  0  0  0  0  0  0  0  0  0  0
   60.5690   -6.4058   -8.5448 C   0  0  0  0  0  0  0  0  0  0  0  0
   59.3813   -6.0211   -8.0405 N   0  0  0  0  0  0  0  0  0  0  0  0
   58.4625   -5.4640   -8.8344 C   0  0  0  0  0  0  0  0  0  0  0  0
   57.1869   -4.9680   -8.5208 C   0  0  0  0  0  0  0  0  0  0  0  0
   56.7154   -4.5074   -9.7129 C   0  0  0  0  0  0  0  0  0  0  0  0
   57.6510   -4.7142  -10.6644 N   0  0  0  0  0  0  0  0  0  0  0  0
   58.7152   -5.2925  -10.1245 N   0  0  0  0  0  0  0  0  0  0  0  0
   59.8901   -5.6584  -10.6960 C   0  0  0  0  0  0  0  0  0  0  0  0
 24 25  1  0  0  0
 25 26  1  0  0  0
 26 27  2  0  0  0
 27 28  1  0  0  0
 28 29  2  0  0  0
 29 20  1  0  0  0
 20 21  2  0  0  0
 20 22  1  0  0  0
 22  1  1  0  0  0
  1  9  1  0  0  0
  9 10  2  0  0  0
 10 11  1  0  0  0
 11 12  2  0  0  0
 12 16  1  0  0  0
 16 17  1  0  0  0
 16 18  1  0  0  0
 16 19  1  0  0  0
 12 13  1  0  0  0
 13 14  2  0  0  0
 14 15  1  0  0  0
  1  2  1  0  0  0
  2  3  1  0  0  0
  3  4  1  0  0  0
  4  5  1  0  0  0
  5  6  1  0  0  0
  6  7  1  0  0  0
 29 30  1  0  0  0
 30 31  2  0  0  0
 31 32  1  0  0  0
 32 33  1  0  0  0
 33 25  2  0  0  0
 32 28  1  0  0  0
  6  1  1  0  0  0
 14  9  1  0  0  0
 22 23  1  0  0  0
  7  8  1  0  0  0
M  END
> <minimizedAffinity>
-8.28391

> <CNNscore>
0.3116876483

> <CNNaffinity>
6.2817287445

> <CNN_VS>
1.9579372406

> <CNNaffinity_variance>
0.3757468462

$$$$
[H]OC1([H])C([H])([H])OC([H])([H])C([H])([H])C1(c1c([H])c([H])c(C(F)(F)F)c([H])c1F)N([H])C(=O)c1c([H])nn2c([H])c(C([H])([H])[H])c([H])nc12


 33 36  0  0  0  0  0  0  0  0999 V2000
   55.4723   -4.8481   -7.9572 C   0  0  0  0  0  0  0  0  0  0  0  0
   54.7288   -5.5065   -8.9682 C   0  0  0  0  0  0  0  0  0  0  0  0
   53.6150   -4.7600   -9.6867 C   0  0  0  0  0  0  0  0  0  0  0  0
   53.3994   -3.4686   -9.3737 O   0  0  0  0  0  0  0  0  0  0  0  0
   54.4767   -2.7509   -9.0187 C   0  0  0  0  0  0  0  0  0  0  0  0
   55.6110   -3.3495   -8.3276 C   0  0  0  0  0  0  0  0  0  0  0  0
   56.7611   -3.1458   -9.1171 O   0  0  0  0  0  0  0  0  0  0  0  0
   57.2643   -2.3752   -8.8289 H   0  0  0  0  0  0  0  0  0  0  0  0
   55.1926   -4.8482   -6.5313 C   0  0  0  0  0  0  0  0  0  0  0  0
   55.2520   -6.1016   -5.8972 C   0  0  0  0  0  0  0  0  0  0  0  0
   55.1501   -6.2537   -4.5337 C   0  0  0  0  0  0  0  0  0  0  0  0
   54.9823   -5.1968   -3.7015 C   0  0  0  0  0  0  0  0  0  0  0  0
   54.9195   -3.9341   -4.2938 C   0  0  0  0  0  0  0  0  0  0  0  0
   55.0272   -3.8176   -5.6685 C   0  0  0  0  0  0  0  0  0  0  0  0
   54.9188   -2.5833   -6.1638 F   0  0  0  0  0  0  0  0  0  0  0  0
   54.9126   -5.3527   -2.2303 C   0  0  0  0  0  0  0  0  0  0  0  0
   54.1303   -6.4629   -1.8908 F   0  0  0  0  0  0  0  0  0  0  0  0
   56.1928   -5.4876   -1.7461 F   0  0  0  0  0  0  0  0  0  0  0  0
   54.4214   -4.2189   -1.5873 F   0  0  0  0  0  0  0  0  0  0  0  0
   57.4294   -5.7346   -6.7456 C   0  0  0  0  0  0  0  0  0  0  0  0
   56.6837   -5.7765   -5.7245 O   0  0  0  0  0  0  0  0  0  0  0  0
   56.9080   -5.2772   -8.0098 N   0  0  0  0  0  0  0  0  0  0  0  0
   57.5055   -5.2547   -8.8179 H   0  0  0  0  0  0  0  0  0  0  0  0
   61.1892   -9.8562   -3.0336 C   0  0  0  0  0  0  0  0  0  0  0  0
   60.4799   -8.8951   -3.9511 C   0  0  0  0  0  0  0  0  0  0  0  0
   59.1067   -8.7902   -3.9724 C   0  0  0  0  0  0  0  0  0  0  0  0
   58.4918   -7.9217   -4.7972 N   0  0  0  0  0  0  0  0  0  0  0  0
   59.2107   -7.1435   -5.6111 C   0  0  0  0  0  0  0  0  0  0  0  0
   58.7865   -6.1600   -6.5191 C   0  0  0  0  0  0  0  0  0  0  0  0
   59.9478   -5.6877   -7.0522 C   0  0  0  0  0  0  0  0  0  0  0  0
   60.9866   -6.3454   -6.4938 N   0  0  0  0  0  0  0  0  0  0  0  0
   60.5338   -7.2275   -5.6132 N   0  0  0  0  0  0  0  0  0  0  0  0
   61.2151   -8.0814   -4.8085 C   0  0  0  0  0  0  0  0  0  0  0  0
 24 25  1  0  0  0
 25 26  1  0  0  0
 26 27  2  0  0  0
 27 28  1  0  0  0
 28 29  2  0  0  0
 29 20  1  0  0  0
 20 21  2  0  0  0
 20 22  1  0  0  0
 22  1  1  0  0  0
  1  9  1  0  0  0
  9 10  2  0  0  0
 10 11  1  0  0  0
 11 12  2  0  0  0
 12 16  1  0  0  0
 16 17  1  0  0  0
 16 18  1  0  0  0
 16 19  1  0  0  0
 12 13  1  0  0  0
 13 14  2  0  0  0
 14 15  1  0  0  0
  1  2  1  0  0  0
  2  3  1  0  0  0
  3  4  1  0  0  0
  4  5  1  0  0  0
  5  6  1  0  0  0
  6  7  1  0  0  0
 29 30  1  0  0  0
 30 31  2  0  0  0
 31 32  1  0  0  0
 32 33  1  0  0  0
 33 25  2  0  0  0
 32 28  1  0  0  0
  6  1  1  0  0  0
 14  9  1  0  0  0
 22 23  1  0  0  0
  7  8  1  0  0  0
M  END
> <minimizedAffinity>
16.66875

> <CNNscore>
0.2656927109

> <CNNaffinity>
5.6258859634

> <CNN_VS>
1.4947569370

> <CNNaffinity_variance>
1.4723526239

$$$$
[H]OC1([H])C([H])([H])OC([H])([H])C([H])([H])C1(c1c([H])c([H])c(C(F)(F)F)c([H])c1F)N([H])C(=O)c1c([H])nn2c([H])c(C([H])([H])[H])c([H])nc12


 33 36  0  0  0  0  0  0  0  0999 V2000
   54.7370   -5.4746   -5.9926 C   0  0  0  0  0  0  0  0  0  0  0  0
   55.6486   -4.8942   -5.0759 C   0  0  0  0  0  0  0  0  0  0  0  0
   55.5280   -5.2143   -3.5936 C   0  0  0  0  0  0  0  0  0  0  0  0
   54.5820   -6.0866   -3.1984 O   0  0  0  0  0  0  0  0  0  0  0  0
   54.2830   -7.0747   -4.0563 C   0  0  0  0  0  0  0  0  0  0  0  0
   54.3612   -6.8952   -5.5000 C   0  0  0  0  0  0  0  0  0  0  0  0
   55.2693   -7.8452   -6.0101 O   0  0  0  0  0  0  0  0  0  0  0  0
   54.8197   -8.6295   -6.3459 H   0  0  0  0  0  0  0  0  0  0  0  0
   53.4826   -4.9030   -6.4524 C   0  0  0  0  0  0  0  0  0  0  0  0
   52.3456   -5.2358   -5.6953 C   0  0  0  0  0  0  0  0  0  0  0  0
   51.1113   -4.6690   -5.9139 C   0  0  0  0  0  0  0  0  0  0  0  0
   50.9047   -3.7444   -6.8835 C   0  0  0  0  0  0  0  0  0  0  0  0
   52.0107   -3.3865   -7.6568 C   0  0  0  0  0  0  0  0  0  0  0  0
   53.2381   -3.9755   -7.4085 C   0  0  0  0  0  0  0  0  0  0  0  0
   54.2380   -3.6118   -8.2136 F   0  0  0  0  0  0  0  0  0  0  0  0
   49.5869   -3.1025   -7.0954 C   0  0  0  0  0  0  0  0  0  0  0  0
   48.8939   -3.7356   -8.1341 F   0  0  0  0  0  0  0  0  0  0  0  0
   48.8767   -3.1685   -5.9195 F   0  0  0  0  0  0  0  0  0  0  0  0
   49.6842   -1.7384   -7.3601 F   0  0  0  0  0  0  0  0  0  0  0  0
   56.5702   -4.9615   -7.5611 C   0  0  0  0  0  0  0  0  0  0  0  0
   56.9142   -4.0577   -6.7455 O   0  0  0  0  0  0  0  0  0  0  0  0
   55.4365   -5.8060   -7.2767 N   0  0  0  0  0  0  0  0  0  0  0  0
   55.1751   -6.5270   -7.9265 H   0  0  0  0  0  0  0  0  0  0  0  0
   56.5293   -3.8033  -14.1610 C   0  0  0  0  0  0  0  0  0  0  0  0
   56.6969   -4.0988  -12.6936 C   0  0  0  0  0  0  0  0  0  0  0  0
   55.7106   -3.8088  -11.7769 C   0  0  0  0  0  0  0  0  0  0  0  0
   55.8782   -4.0846  -10.4697 N   0  0  0  0  0  0  0  0  0  0  0  0
   57.0112   -4.6484  -10.0415 C   0  0  0  0  0  0  0  0  0  0  0  0
   57.3832   -5.0449   -8.7469 C   0  0  0  0  0  0  0  0  0  0  0  0
   58.6294   -5.5692   -8.9134 C   0  0  0  0  0  0  0  0  0  0  0  0
   58.9680   -5.4907  -10.2182 N   0  0  0  0  0  0  0  0  0  0  0  0
   57.9779   -4.9340  -10.9026 N   0  0  0  0  0  0  0  0  0  0  0  0
   57.8737   -4.6813  -12.2316 C   0  0  0  0  0  0  0  0  0  0  0  0
 24 25  1  0  0  0
 25 26  1  0  0  0
 26 27  2  0  0  0
 27 28  1  0  0  0
 28 29  2  0  0  0
 29 20  1  0  0  0
 20 21  2  0  0  0
 20 22  1  0  0  0
 22  1  1  0  0  0
  1  9  1  0  0  0
  9 10  2  0  0  0
 10 11  1  0  0  0
 11 12  2  0  0  0
 12 16  1  0  0  0
 16 17  1  0  0  0
 16 18  1  0  0  0
 16 19  1  0  0  0
 12 13  1  0  0  0
 13 14  2  0  0  0
 14 15  1  0  0  0
  1  2  1  0  0  0
  2  3  1  0  0  0
  3  4  1  0  0  0
  4  5  1  0  0  0
  5  6  1  0  0  0
  6  7  1  0  0  0
 29 30  1  0  0  0
 30 31  2  0  0  0
 31 32  1  0  0  0
 32 33  1  0  0  0
 33 25  2  0  0  0
 32 28  1  0  0  0
  6  1  1  0  0  0
 14  9  1  0  0  0
 22 23  1  0  0  0
  7  8  1  0  0  0
M  END
> <minimizedAffinity>
-10.55759

> <CNNscore>
0.2229848206

> <CNNaffinity>
6.5437765121

> <CNN_VS>
1.4591628313

> <CNNaffinity_variance>
0.1662587970

$$$$
[H]OC1([H])C([H])([H])OC([H])([H])C([H])([H])C1(c1c([H])c([H])c(C(F)(F)F)c([H])c1F)N([H])C(=O)c1c([H])nn2c([H])c(C([H])([H])[H])c([H])nc12


 33 36  0  0  0  0  0  0  0  0999 V2000
   54.7780   -5.3724   -6.8049 C   0  0  0  0  0  0  0  0  0  0  0  0
   54.1701   -6.6292   -6.5615 C   0  0  0  0  0  0  0  0  0  0  0  0
   54.9785   -7.7393   -5.9071 C   0  0  0  0  0  0  0  0  0  0  0  0
   56.2436   -7.4773   -5.5290 O   0  0  0  0  0  0  0  0  0  0  0  0
   56.4996   -6.2237   -5.1234 C   0  0  0  0  0  0  0  0  0  0  0  0
   55.7919   -5.0740   -5.6713 C   0  0  0  0  0  0  0  0  0  0  0  0
   55.1522   -4.4065   -4.6070 O   0  0  0  0  0  0  0  0  0  0  0  0
   55.6734   -3.6626   -4.2829 H   0  0  0  0  0  0  0  0  0  0  0  0
   55.4549   -4.9539   -8.0207 C   0  0  0  0  0  0  0  0  0  0  0  0
   56.8522   -5.1092   -8.0265 C   0  0  0  0  0  0  0  0  0  0  0  0
   57.6226   -4.8917   -9.1453 C   0  0  0  0  0  0  0  0  0  0  0  0
   57.0829   -4.5079  -10.3281 C   0  0  0  0  0  0  0  0  0  0  0  0
   55.6968   -4.3439  -10.3629 C   0  0  0  0  0  0  0  0  0  0  0  0
   54.9523   -4.5727   -9.2191 C   0  0  0  0  0  0  0  0  0  0  0  0
   53.6393   -4.3576   -9.3199 F   0  0  0  0  0  0  0  0  0  0  0  0
   57.9042   -4.3120  -11.5450 C   0  0  0  0  0  0  0  0  0  0  0  0
   59.2188   -4.7394  -11.3240 F   0  0  0  0  0  0  0  0  0  0  0  0
   57.3266   -5.0139  -12.5772 F   0  0  0  0  0  0  0  0  0  0  0  0
   57.9089   -2.9919  -11.9895 F   0  0  0  0  0  0  0  0  0  0  0  0
   52.4133   -4.6733   -6.7464 C   0  0  0  0  0  0  0  0  0  0  0  0
   52.1294   -5.8753   -7.0202 O   0  0  0  0  0  0  0  0  0  0  0  0
   53.7877   -4.2684   -6.5842 N   0  0  0  0  0  0  0  0  0  0  0  0
   54.0038   -3.3130   -6.3587 H   0  0  0  0  0  0  0  0  0  0  0  0
   46.7491   -3.6917   -3.3031 C   0  0  0  0  0  0  0  0  0  0  0  0
   47.9925   -3.7695   -4.1497 C   0  0  0  0  0  0  0  0  0  0  0  0
   48.9604   -4.7252   -3.9329 C   0  0  0  0  0  0  0  0  0  0  0  0
   50.0630   -4.7805   -4.7037 N   0  0  0  0  0  0  0  0  0  0  0  0
   50.2335   -3.9035   -5.6969 C   0  0  0  0  0  0  0  0  0  0  0  0
   51.2766   -3.7965   -6.6309 C   0  0  0  0  0  0  0  0  0  0  0  0
   50.9110   -2.7378   -7.4062 C   0  0  0  0  0  0  0  0  0  0  0  0
   49.7305   -2.2555   -6.9621 N   0  0  0  0  0  0  0  0  0  0  0  0
   49.3190   -2.9711   -5.9243 N   0  0  0  0  0  0  0  0  0  0  0  0
   48.1867   -2.8595   -5.1850 C   0  0  0  0  0  0  0  0  0  0  0  0
 24 25  1  0  0  0
 25 26  1  0  0  0
 26 27  2  0  0  0
 27 28  1  0  0  0
 28 29  2  0  0  0
 29 20  1  0  0  0
 20 21  2  0  0  0
 20 22  1  0  0  0
 22  1  1  0  0  0
  1  9  1  0  0  0
  9 10  2  0  0  0
 10 11  1  0  0  0
 11 12  2  0  0  0
 12 16  1  0  0  0
 16 17  1  0  0  0
 16 18  1  0  0  0
 16 19  1  0  0  0
 12 13  1  0  0  0
 13 14  2  0  0  0
 14 15  1  0  0  0
  1  2  1  0  0  0
  2  3  1  0  0  0
  3  4  1  0  0  0
  4  5  1  0  0  0
  5  6  1  0  0  0
  6  7  1  0  0  0
 29 30  1  0  0  0
 30 31  2  0  0  0
 31 32  1  0  0  0
 32 33  1  0  0  0
 33 25  2  0  0  0
 32 28  1  0  0  0
  6  1  1  0  0  0
 14  9  1  0  0  0
 22 23  1  0  0  0
  7  8  1  0  0  0
M  END
> <minimizedAffinity>
-9.32374

> <CNNscore>
0.1895342469

> <CNNaffinity>
6.5529556274

> <CNN_VS>
1.2420095205

> <CNNaffinity_variance>
0.1579972953

$$$$
[H]OC1([H])C([H])([H])OC([H])([H])C([H])([H])C1(c1c([H])c([H])c(C(F)(F)F)c([H])c1F)N([H])C(=O)c1c([H])nn2c([H])c(C([H])([H])[H])c([H])nc12


 33 36  0  0  0  0  0  0  0  0999 V2000
   62.0692   -7.3611  -10.1614 C   0  0  0  0  0  0  0  0  0  0  0  0
   61.3024   -8.2514   -9.3691 C   0  0  0  0  0  0  0  0  0  0  0  0
   61.9301   -8.8934   -8.1411 C   0  0  0  0  0  0  0  0  0  0  0  0
   63.1907   -8.5553   -7.8113 O   0  0  0  0  0  0  0  0  0  0  0  0
   63.5671   -7.2986   -8.0954 C   0  0  0  0  0  0  0  0  0  0  0  0
   63.0370   -6.5732   -9.2423 C   0  0  0  0  0  0  0  0  0  0  0  0
   62.4144   -5.4005   -8.7684 O   0  0  0  0  0  0  0  0  0  0  0  0
   62.9984   -4.6350   -8.8233 H   0  0  0  0  0  0  0  0  0  0  0  0
   62.8671   -7.7007  -11.3275 C   0  0  0  0  0  0  0  0  0  0  0  0
   63.3945   -9.0037  -11.3486 C   0  0  0  0  0  0  0  0  0  0  0  0
   64.0519   -9.5252  -12.4388 C   0  0  0  0  0  0  0  0  0  0  0  0
   64.2391   -8.8117  -13.5762 C   0  0  0  0  0  0  0  0  0  0  0  0
   63.7282   -7.5125  -13.5946 C   0  0  0  0  0  0  0  0  0  0  0  0
   63.0710   -7.0204  -12.4806 C   0  0  0  0  0  0  0  0  0  0  0  0
   62.6455   -5.7581  -12.5593 F   0  0  0  0  0  0  0  0  0  0  0  0
   64.9106   -9.3834  -14.7661 C   0  0  0  0  0  0  0  0  0  0  0  0
   65.7486   -8.4327  -15.3608 F   0  0  0  0  0  0  0  0  0  0  0  0
   65.6255  -10.4903  -14.3723 F   0  0  0  0  0  0  0  0  0  0  0  0
   64.0134   -9.8743  -15.7118 F   0  0  0  0  0  0  0  0  0  0  0  0
   59.8899   -6.2089  -10.0779 C   0  0  0  0  0  0  0  0  0  0  0  0
   59.5636   -7.0507   -9.1918 O   0  0  0  0  0  0  0  0  0  0  0  0
   61.2047   -6.2461  -10.6688 N   0  0  0  0  0  0  0  0  0  0  0  0
   61.4583   -5.5684  -11.3665 H   0  0  0  0  0  0  0  0  0  0  0  0
   54.0129   -3.7295   -8.0246 C   0  0  0  0  0  0  0  0  0  0  0  0
   55.3297   -4.1748   -8.6046 C   0  0  0  0  0  0  0  0  0  0  0  0
   56.1473   -5.0686   -7.9488 C   0  0  0  0  0  0  0  0  0  0  0  0
   57.3189   -5.4574   -8.4862 N   0  0  0  0  0  0  0  0  0  0  0  0
   57.7064   -4.9789   -9.6718 C   0  0  0  0  0  0  0  0  0  0  0  0
   58.8576   -5.2658  -10.4229 C   0  0  0  0  0  0  0  0  0  0  0  0
   58.7119   -4.5053  -11.5437 C   0  0  0  0  0  0  0  0  0  0  0  0
   57.5517   -3.8194  -11.4610 N   0  0  0  0  0  0  0  0  0  0  0  0
   56.9401   -4.1144  -10.3220 N   0  0  0  0  0  0  0  0  0  0  0  0
   55.7494   -3.6811   -9.8365 C   0  0  0  0  0  0  0  0  0  0  0  0
 24 25  1  0  0  0
 25 26  1  0  0  0
 26 27  2  0  0  0
 27 28  1  0  0  0
 28 29  2  0  0  0
 29 20  1  0  0  0
 20 21  2  0  0  0
 20 22  1  0  0  0
 22  1  1  0  0  0
  1  9  1  0  0  0
  9 10  2  0  0  0
 10 11  1  0  0  0
 11 12  2  0  0  0
 12 16  1  0  0  0
 16 17  1  0  0  0
 16 18  1  0  0  0
 16 19  1  0  0  0
 12 13  1  0  0  0
 13 14  2  0  0  0
 14 15  1  0  0  0
  1  2  1  0  0  0
  2  3  1  0  0  0
  3  4  1  0  0  0
  4  5  1  0  0  0
  5  6  1  0  0  0
  6  7  1  0  0  0
 29 30  1  0  0  0
 30 31  2  0  0  0
 31 32  1  0  0  0
 32 33  1  0  0  0
 33 25  2  0  0  0
 32 28  1  0  0  0
  6  1  1  0  0  0
 14  9  1  0  0  0
 22 23  1  0  0  0
  7  8  1  0  0  0
M  END
> <minimizedAffinity>
-4.48621

> <CNNscore>
0.1809083968

> <CNNaffinity>
4.8260183334

> <CNN_VS>
0.8730672598

> <CNNaffinity_variance>
0.2164704055

$$$$
[H]OC1([H])C([H])([H])OC([H])([H])C([H])([H])C1(c1c([H])c([H])c(C(F)(F)F)c([H])c1F)N([H])C(=O)c1c([H])nn2c([H])c(C([H])([H])[H])c([H])nc12


 33 36  0  0  0  0  0  0  0  0999 V2000
   54.8386   -6.2080   -4.8447 C   0  0  0  0  0  0  0  0  0  0  0  0
   56.1095   -5.7330   -4.4355 C   0  0  0  0  0  0  0  0  0  0  0  0
   56.8241   -6.4074   -3.2742 C   0  0  0  0  0  0  0  0  0  0  0  0
   56.2461   -7.4771   -2.6965 O   0  0  0  0  0  0  0  0  0  0  0  0
   55.5152   -8.2680   -3.4977 C   0  0  0  0  0  0  0  0  0  0  0  0
   54.7853   -7.7440   -4.6445 C   0  0  0  0  0  0  0  0  0  0  0  0
   55.2533   -8.4036   -5.7992 O   0  0  0  0  0  0  0  0  0  0  0  0
   54.6866   -9.1439   -6.0461 H   0  0  0  0  0  0  0  0  0  0  0  0
   53.5435   -5.7342   -4.3866 C   0  0  0  0  0  0  0  0  0  0  0  0
   52.5918   -5.4897   -5.3922 C   0  0  0  0  0  0  0  0  0  0  0  0
   51.2815   -5.1722   -5.1183 C   0  0  0  0  0  0  0  0  0  0  0  0
   50.8149   -5.0709   -3.8495 C   0  0  0  0  0  0  0  0  0  0  0  0
   51.7303   -5.3078   -2.8223 C   0  0  0  0  0  0  0  0  0  0  0  0
   53.0404   -5.6264   -3.1339 C   0  0  0  0  0  0  0  0  0  0  0  0
   53.8649   -5.8003   -2.0992 F   0  0  0  0  0  0  0  0  0  0  0  0
   49.3959   -4.7691   -3.5511 C   0  0  0  0  0  0  0  0  0  0  0  0
   49.0426   -5.2670   -2.2913 F   0  0  0  0  0  0  0  0  0  0  0  0
   49.2200   -3.4062   -3.6073 F   0  0  0  0  0  0  0  0  0  0  0  0
   48.5213   -5.2669   -4.5141 F   0  0  0  0  0  0  0  0  0  0  0  0
   55.1845   -4.8790   -6.8936 C   0  0  0  0  0  0  0  0  0  0  0  0
   55.6824   -3.9907   -6.1431 O   0  0  0  0  0  0  0  0  0  0  0  0
   54.7107   -6.1216   -6.3361 N   0  0  0  0  0  0  0  0  0  0  0  0
   54.3238   -6.8252   -6.9408 H   0  0  0  0  0  0  0  0  0  0  0  0
   58.9591   -4.3218  -12.4022 C   0  0  0  0  0  0  0  0  0  0  0  0
   57.9823   -4.4153  -11.2594 C   0  0  0  0  0  0  0  0  0  0  0  0
   58.3561   -4.8889  -10.0212 C   0  0  0  0  0  0  0  0  0  0  0  0
   57.4686   -4.9607   -9.0112 N   0  0  0  0  0  0  0  0  0  0  0  0
   56.2049   -4.5697   -9.1976 C   0  0  0  0  0  0  0  0  0  0  0  0
   55.1343   -4.5298   -8.2899 C   0  0  0  0  0  0  0  0  0  0  0  0
   54.1027   -4.0306   -9.0263 C   0  0  0  0  0  0  0  0  0  0  0  0
   54.5363   -3.7888  -10.2820 N   0  0  0  0  0  0  0  0  0  0  0  0
   55.8182   -4.1137  -10.3809 N   0  0  0  0  0  0  0  0  0  0  0  0
   56.6609   -4.0165  -11.4398 C   0  0  0  0  0  0  0  0  0  0  0  0
 24 25  1  0  0  0
 25 26  1  0  0  0
 26 27  2  0  0  0
 27 28  1  0  0  0
 28 29  2  0  0  0
 29 20  1  0  0  0
 20 21  2  0  0  0
 20 22  1  0  0  0
 22  1  1  0  0  0
  1  9  1  0  0  0
  9 10  2  0  0  0
 10 11  1  0  0  0
 11 12  2  0  0  0
 12 16  1  0  0  0
 16 17  1  0  0  0
 16 18  1  0  0  0
 16 19  1  0  0  0
 12 13  1  0  0  0
 13 14  2  0  0  0
 14 15  1  0  0  0
  1  2  1  0  0  0
  2  3  1  0  0  0
  3  4  1  0  0  0
  4  5  1  0  0  0
  5  6  1  0  0  0
  6  7  1  0  0  0
 29 30  1  0  0  0
 30 31  2  0  0  0
 31 32  1  0  0  0
 32 33  1  0  0  0
 33 25  2  0  0  0
 32 28  1  0  0  0
  6  1  1  0  0  0
 14  9  1  0  0  0
 22 23  1  0  0  0
  7  8  1  0  0  0
M  END
> <minimizedAffinity>
-8.43460

> <CNNscore>
0.1725220531

> <CNNaffinity>
6.2310142517

> <CNN_VS>
1.0749874115

> <CNNaffinity_variance>
0.7408250570

$$$$
[H]OC(=O)C([H])([H])C([H])([H])[C@@]([H])(C(=O)N1C([H])([H])C([H])([H])C([H])([H])[C@@]1([H])C(=O)N([H])[C@]([H])(C(=O)OC([H])([H])[H])C([H])([H])c1c([H])c([H])c([H])c([H])c1[H])N([H])C(=O)[C@@]([H])(N([H])C(=O)OC([H])([H])c1c([H])c([H])c([H])c([H])c1[H])[C@@]([H])(C([H])([H])[H])C([H])([H])C([H])([H])[H]


 51 53  0  0  0  0  0  0  0  0999 V2000
   56.9771   -4.6167  -11.1413 C   0  0  0  0  0  0  0  0  0  0  0  0
   55.6276   -4.3533  -10.7292 C   0  0  0  0  0  0  0  0  0  0  0  0
   54.7711   -4.6931  -11.7305 O   0  0  0  0  0  0  0  0  0  0  0  0
   54.9270   -3.8601   -9.6490 N   0  0  0  0  0  0  0  0  0  0  0  0
   53.4375   -3.7935   -9.6396 C   0  0  0  0  0  0  0  0  0  0  0  0
   53.2394   -2.3303   -9.3030 C   0  0  0  0  0  0  0  0  0  0  0  0
   54.3108   -2.0732   -8.2986 C   0  0  0  0  0  0  0  0  0  0  0  0
   55.2813   -3.2781   -8.4090 C   0  0  0  0  0  0  0  0  0  0  0  0
   55.0109   -4.0854   -7.2077 C   0  0  0  0  0  0  0  0  0  0  0  0
   55.8743   -4.2050   -6.3225 O   0  0  0  0  0  0  0  0  0  0  0  0
   53.7589   -4.7310   -7.0634 N   0  0  0  0  0  0  0  0  0  0  0  0
   53.0002   -4.6499   -7.7742 H   0  0  0  0  0  0  0  0  0  0  0  0
   53.5076   -5.5561   -5.8652 C   0  0  0  0  0  0  0  0  0  0  0  0
   54.4072   -6.7158   -5.8444 C   0  0  0  0  0  0  0  0  0  0  0  0
   54.6159   -7.3686   -6.9346 O   0  0  0  0  0  0  0  0  0  0  0  0
   55.0669   -7.1818   -4.7504 O   0  0  0  0  0  0  0  0  0  0  0  0
   55.2676   -6.3801   -3.5759 C   0  0  0  0  0  0  0  0  0  0  0  0
   52.0753   -5.9822   -5.8852 C   0  0  0  0  0  0  0  0  0  0  0  0
   51.0823   -4.9512   -5.6123 C   0  0  0  0  0  0  0  0  0  0  0  0
   50.8424   -4.0248   -6.6246 C   0  0  0  0  0  0  0  0  0  0  0  0
   49.9023   -3.0578   -6.4124 C   0  0  0  0  0  0  0  0  0  0  0  0
   49.1856   -2.9672   -5.2376 C   0  0  0  0  0  0  0  0  0  0  0  0
   49.4523   -3.9195   -4.2374 C   0  0  0  0  0  0  0  0  0  0  0  0
   50.3854   -4.8868   -4.4330 C   0  0  0  0  0  0  0  0  0  0  0  0
   57.1399   -4.0764  -13.6227 C   0  0  0  0  0  0  0  0  0  0  0  0
   57.0022   -5.3417  -13.8093 O   0  0  0  0  0  0  0  0  0  0  0  0
   57.1375   -3.6263  -12.3015 N   0  0  0  0  0  0  0  0  0  0  0  0
   57.2466   -2.6256  -12.0551 H   0  0  0  0  0  0  0  0  0  0  0  0
   57.2888   -3.2739  -14.8195 C   0  0  0  0  0  0  0  0  0  0  0  0
   58.6582   -2.9201  -15.0910 N   0  0  0  0  0  0  0  0  0  0  0  0
   59.8225   -3.2170  -14.3725 C   0  0  0  0  0  0  0  0  0  0  0  0
   59.9366   -3.8602  -13.3127 O   0  0  0  0  0  0  0  0  0  0  0  0
   58.8260   -2.3322  -15.9894 H   0  0  0  0  0  0  0  0  0  0  0  0
   61.0689   -2.7449  -14.8694 O   0  0  0  0  0  0  0  0  0  0  0  0
   62.2886   -3.0988  -14.2708 C   0  0  0  0  0  0  0  0  0  0  0  0
   63.1736   -1.9800  -13.9694 C   0  0  0  0  0  0  0  0  0  0  0  0
   64.4511   -1.9449  -14.5189 C   0  0  0  0  0  0  0  0  0  0  0  0
   65.3394   -0.9293  -14.2763 C   0  0  0  0  0  0  0  0  0  0  0  0
   64.9682    0.1245  -13.4462 C   0  0  0  0  0  0  0  0  0  0  0  0
   63.7001    0.0988  -12.8953 C   0  0  0  0  0  0  0  0  0  0  0  0
   62.8175   -0.9328  -13.1508 C   0  0  0  0  0  0  0  0  0  0  0  0
   56.6742   -3.8359  -16.0822 C   0  0  0  0  0  0  0  0  0  0  0  0
   55.5229   -2.9979  -16.6190 C   0  0  0  0  0  0  0  0  0  0  0  0
   57.8363   -5.0641  -17.9517 C   0  0  0  0  0  0  0  0  0  0  0  0
   57.7447   -3.7712  -17.1646 C   0  0  0  0  0  0  0  0  0  0  0  0
   58.1742   -4.5661  -10.3279 C   0  0  0  0  0  0  0  0  0  0  0  0
   58.4717   -5.6666   -9.3621 C   0  0  0  0  0  0  0  0  0  0  0  0
   59.9423   -6.0057   -9.3680 C   0  0  0  0  0  0  0  0  0  0  0  0
   60.5654   -6.0975   -8.2887 O   0  0  0  0  0  0  0  0  0  0  0  0
   60.6470   -6.2262  -10.5478 O   0  0  0  0  0  0  0  0  0  0  0  0
   61.4377   -6.8234  -10.6132 H   0  0  0  0  0  0  0  0  0  0  0  0
 44 45  1  0  0  0
 45 42  1  0  0  0
 42 43  1  0  0  0
 42 29  1  0  0  0
 29 30  1  0  0  0
 30 31  1  0  0  0
 31 32  2  0  0  0
 31 34  1  0  0  0
 34 35  1  0  0  0
 35 36  1  0  0  0
 36 37  2  0  0  0
 37 38  1  0  0  0
 38 39  2  0  0  0
 39 40  1  0  0  0
 40 41  2  0  0  0
 29 25  1  0  0  0
 25 26  2  0  0  0
 25 27  1  0  0  0
 27  1  1  0  0  0
  1 46  1  0  0  0
 46 47  1  0  0  0
 47 48  1  0  0  0
 48 49  2  0  0  0
 48 50  1  0  0  0
  1  2  1  0  0  0
  2  3  2  0  0  0
  2  4  1  0  0  0
  4  5  1  0  0  0
  5  6  1  0  0  0
  6  7  1  0  0  0
  7  8  1  0  0  0
  8  9  1  0  0  0
  9 10  2  0  0  0
  9 11  1  0  0  0
 11 13  1  0  0  0
 13 18  1  0  0  0
 18 19  1  0  0  0
 19 20  2  0  0  0
 20 21  1  0  0  0
 21 22  2  0  0  0
 22 23  1  0  0  0
 23 24  2  0  0  0
 13 14  1  0  0  0
 14 15  2  0  0  0
 14 16  1  0  0  0
 16 17  1  0  0  0
 41 36  1  0  0  0
  8  4  1  0  0  0
 24 19  1  0  0  0
 30 33  1  0  0  0
 27 28  1  0  0  0
 50 51  1  0  0  0
 11 12  1  0  0  0
M  END
> <minimizedAffinity>
-7.60043

> <CNNscore>
0.2138657123

> <CNNaffinity>
6.6606750488

> <CNN_VS>
1.4244899750

> <CNNaffinity_variance>
0.2569494843

$$$$
[H]OC(=O)C([H])([H])C([H])([H])[C@@]([H])(C(=O)N1C([H])([H])C([H])([H])C([H])([H])[C@@]1([H])C(=O)N([H])[C@]([H])(C(=O)OC([H])([H])[H])C([H])([H])c1c([H])c([H])c([H])c([H])c1[H])N([H])C(=O)[C@@]([H])(N([H])C(=O)OC([H])([H])c1c([H])c([H])c([H])c([H])c1[H])[C@@]([H])(C([H])([H])[H])C([H])([H])C([H])([H])[H]


 51 53  0  0  0  0  0  0  0  0999 V2000
   56.9905   -4.6380  -11.0755 C   0  0  0  0  0  0  0  0  0  0  0  0
   55.6369   -4.3766  -10.6755 C   0  0  0  0  0  0  0  0  0  0  0  0
   54.7905   -4.7089  -11.6878 O   0  0  0  0  0  0  0  0  0  0  0  0
   54.9256   -3.8904   -9.5991 N   0  0  0  0  0  0  0  0  0  0  0  0
   53.4361   -3.8229   -9.6045 C   0  0  0  0  0  0  0  0  0  0  0  0
   53.2354   -2.3619   -9.2599 C   0  0  0  0  0  0  0  0  0  0  0  0
   54.2966   -2.1124   -8.2428 C   0  0  0  0  0  0  0  0  0  0  0  0
   55.2675   -3.3171   -8.3516 C   0  0  0  0  0  0  0  0  0  0  0  0
   54.9843   -4.1325   -7.1587 C   0  0  0  0  0  0  0  0  0  0  0  0
   55.8534   -4.2932   -6.2856 O   0  0  0  0  0  0  0  0  0  0  0  0
   53.7135   -4.7387   -7.0086 N   0  0  0  0  0  0  0  0  0  0  0  0
   52.9497   -4.6224   -7.7091 H   0  0  0  0  0  0  0  0  0  0  0  0
   53.4487   -5.5724   -5.8193 C   0  0  0  0  0  0  0  0  0  0  0  0
   54.3454   -6.7344   -5.7989 C   0  0  0  0  0  0  0  0  0  0  0  0
   54.5688   -7.3748   -6.8936 O   0  0  0  0  0  0  0  0  0  0  0  0
   54.9877   -7.2149   -4.7009 O   0  0  0  0  0  0  0  0  0  0  0  0
   55.1495   -6.4369   -3.5046 C   0  0  0  0  0  0  0  0  0  0  0  0
   52.0158   -5.9949   -5.8563 C   0  0  0  0  0  0  0  0  0  0  0  0
   51.0245   -4.9740   -5.5421 C   0  0  0  0  0  0  0  0  0  0  0  0
   50.7600   -4.0284   -6.5303 C   0  0  0  0  0  0  0  0  0  0  0  0
   49.8207   -3.0700   -6.2792 C   0  0  0  0  0  0  0  0  0  0  0  0
   49.1282   -3.0063   -5.0883 C   0  0  0  0  0  0  0  0  0  0  0  0
   49.4194   -3.9773   -4.1133 C   0  0  0  0  0  0  0  0  0  0  0  0
   50.3520   -4.9363   -4.3477 C   0  0  0  0  0  0  0  0  0  0  0  0
   57.1244   -4.1032  -13.5598 C   0  0  0  0  0  0  0  0  0  0  0  0
   56.9493   -5.3644  -13.7429 O   0  0  0  0  0  0  0  0  0  0  0  0
   57.1572   -3.6527  -12.2391 N   0  0  0  0  0  0  0  0  0  0  0  0
   57.2976   -2.6553  -11.9955 H   0  0  0  0  0  0  0  0  0  0  0  0
   57.2740   -3.3055  -14.7597 C   0  0  0  0  0  0  0  0  0  0  0  0
   58.6374   -2.9123  -15.0057 N   0  0  0  0  0  0  0  0  0  0  0  0
   59.8053   -3.2301  -14.3020 C   0  0  0  0  0  0  0  0  0  0  0  0
   59.9284   -3.9319  -13.2812 O   0  0  0  0  0  0  0  0  0  0  0  0
   58.7967   -2.2701  -15.8678 H   0  0  0  0  0  0  0  0  0  0  0  0
   61.0441   -2.7078  -14.7666 O   0  0  0  0  0  0  0  0  0  0  0  0
   62.2086   -3.4908  -14.8140 C   0  0  0  0  0  0  0  0  0  0  0  0
   62.1671   -4.5984  -15.7612 C   0  0  0  0  0  0  0  0  0  0  0  0
   62.7707   -5.8081  -15.4332 C   0  0  0  0  0  0  0  0  0  0  0  0
   62.7767   -6.8905  -16.2746 C   0  0  0  0  0  0  0  0  0  0  0  0
   62.1575   -6.7980  -17.5177 C   0  0  0  0  0  0  0  0  0  0  0  0
   61.5544   -5.5994  -17.8528 C   0  0  0  0  0  0  0  0  0  0  0  0
   61.5577   -4.5187  -16.9924 C   0  0  0  0  0  0  0  0  0  0  0  0
   56.7031   -3.8952  -16.0302 C   0  0  0  0  0  0  0  0  0  0  0  0
   55.6062   -3.0434  -16.6526 C   0  0  0  0  0  0  0  0  0  0  0  0
   57.7769   -5.1335  -17.9454 C   0  0  0  0  0  0  0  0  0  0  0  0
   57.8258   -3.9031  -17.0603 C   0  0  0  0  0  0  0  0  0  0  0  0
   58.1809   -4.5799  -10.2528 C   0  0  0  0  0  0  0  0  0  0  0  0
   58.4857   -5.6861   -9.2957 C   0  0  0  0  0  0  0  0  0  0  0  0
   59.9531   -6.0374   -9.3280 C   0  0  0  0  0  0  0  0  0  0  0  0
   60.5930   -6.1413   -8.2597 O   0  0  0  0  0  0  0  0  0  0  0  0
   60.6364   -6.2563  -10.5207 O   0  0  0  0  0  0  0  0  0  0  0  0
   61.4208   -6.8597  -10.6028 H   0  0  0  0  0  0  0  0  0  0  0  0
 44 45  1  0  0  0
 45 42  1  0  0  0
 42 43  1  0  0  0
 42 29  1  0  0  0
 29 30  1  0  0  0
 30 31  1  0  0  0
 31 32  2  0  0  0
 31 34  1  0  0  0
 34 35  1  0  0  0
 35 36  1  0  0  0
 36 37  2  0  0  0
 37 38  1  0  0  0
 38 39  2  0  0  0
 39 40  1  0  0  0
 40 41  2  0  0  0
 29 25  1  0  0  0
 25 26  2  0  0  0
 25 27  1  0  0  0
 27  1  1  0  0  0
  1 46  1  0  0  0
 46 47  1  0  0  0
 47 48  1  0  0  0
 48 49  2  0  0  0
 48 50  1  0  0  0
  1  2  1  0  0  0
  2  3  2  0  0  0
  2  4  1  0  0  0
  4  5  1  0  0  0
  5  6  1  0  0  0
  6  7  1  0  0  0
  7  8  1  0  0  0
  8  9  1  0  0  0
  9 10  2  0  0  0
  9 11  1  0  0  0
 11 13  1  0  0  0
 13 18  1  0  0  0
 18 19  1  0  0  0
 19 20  2  0  0  0
 20 21  1  0  0  0
 21 22  2  0  0  0
 22 23  1  0  0  0
 23 24  2  0  0  0
 13 14  1  0  0  0
 14 15  2  0  0  0
 14 16  1  0  0  0
 16 17  1  0  0  0
 41 36  1  0  0  0
  8  4  1  0  0  0
 24 19  1  0  0  0
 30 33  1  0  0  0
 27 28  1  0  0  0
 50 51  1  0  0  0
 11 12  1  0  0  0
M  END
> <minimizedAffinity>
-7.46511

> <CNNscore>
0.1863005906

> <CNNaffinity>
6.5801324844

> <CNN_VS>
1.2258825302

> <CNNaffinity_variance>
0.3848778605

$$$$
[H]OC(=O)C([H])([H])C([H])([H])[C@@]([H])(C(=O)N1C([H])([H])C([H])([H])C([H])([H])[C@@]1([H])C(=O)N([H])[C@]([H])(C(=O)OC([H])([H])[H])C([H])([H])c1c([H])c([H])c([H])c([H])c1[H])N([H])C(=O)[C@@]([H])(N([H])C(=O)OC([H])([H])c1c([H])c([H])c([H])c([H])c1[H])[C@@]([H])(C([H])([H])[H])C([H])([H])C([H])([H])[H]


 51 53  0  0  0  0  0  0  0  0999 V2000
   57.4074   -3.9056  -12.9786 C   0  0  0  0  0  0  0  0  0  0  0  0
   58.8267   -3.9910  -13.1754 C   0  0  0  0  0  0  0  0  0  0  0  0
   59.4055   -4.5525  -12.0794 O   0  0  0  0  0  0  0  0  0  0  0  0
   59.7865   -3.6789  -14.1148 N   0  0  0  0  0  0  0  0  0  0  0  0
   61.2280   -3.9958  -13.9037 C   0  0  0  0  0  0  0  0  0  0  0  0
   61.8366   -2.6277  -14.1304 C   0  0  0  0  0  0  0  0  0  0  0  0
   61.0321   -2.0910  -15.2652 C   0  0  0  0  0  0  0  0  0  0  0  0
   59.7851   -3.0086  -15.3608 C   0  0  0  0  0  0  0  0  0  0  0  0
   60.0261   -3.8417  -16.5507 C   0  0  0  0  0  0  0  0  0  0  0  0
   59.1983   -3.8706  -17.4766 O   0  0  0  0  0  0  0  0  0  0  0  0
   61.2084   -4.6161  -16.6373 N   0  0  0  0  0  0  0  0  0  0  0  0
   61.9365   -4.6146  -15.8908 H   0  0  0  0  0  0  0  0  0  0  0  0
   61.4284   -5.4649  -17.8251 C   0  0  0  0  0  0  0  0  0  0  0  0
   61.3372   -6.8846  -17.4638 C   0  0  0  0  0  0  0  0  0  0  0  0
   62.3068   -7.4316  -16.8164 O   0  0  0  0  0  0  0  0  0  0  0  0
   60.2923   -7.7056  -17.7522 O   0  0  0  0  0  0  0  0  0  0  0  0
   59.1487   -7.2595  -18.4975 C   0  0  0  0  0  0  0  0  0  0  0  0
   62.7718   -5.1353  -18.3907 C   0  0  0  0  0  0  0  0  0  0  0  0
   63.2463   -3.7711  -18.1971 C   0  0  0  0  0  0  0  0  0  0  0  0
   64.2250   -3.5773  -17.2248 C   0  0  0  0  0  0  0  0  0  0  0  0
   64.7092   -2.3156  -17.0315 C   0  0  0  0  0  0  0  0  0  0  0  0
   64.2661   -1.2326  -17.7615 C   0  0  0  0  0  0  0  0  0  0  0  0
   63.2784   -1.4645  -18.7356 C   0  0  0  0  0  0  0  0  0  0  0  0
   62.7858   -2.7137  -18.9389 C   0  0  0  0  0  0  0  0  0  0  0  0
   56.3326   -4.0353  -10.6756 C   0  0  0  0  0  0  0  0  0  0  0  0
   55.4983   -4.8515  -11.2164 O   0  0  0  0  0  0  0  0  0  0  0  0
   57.3308   -3.5110  -11.4984 N   0  0  0  0  0  0  0  0  0  0  0  0
   58.0436   -2.8436  -11.1512 H   0  0  0  0  0  0  0  0  0  0  0  0
   56.1225   -3.7565   -9.2697 C   0  0  0  0  0  0  0  0  0  0  0  0
   54.7767   -4.0331   -8.8378 N   0  0  0  0  0  0  0  0  0  0  0  0
   53.6670   -3.1836   -8.7549 C   0  0  0  0  0  0  0  0  0  0  0  0
   53.5953   -1.9727   -9.0345 O   0  0  0  0  0  0  0  0  0  0  0  0
   54.5803   -5.0555   -8.5262 H   0  0  0  0  0  0  0  0  0  0  0  0
   52.4324   -3.7186   -8.2938 O   0  0  0  0  0  0  0  0  0  0  0  0
   51.3317   -2.8980   -7.9996 C   0  0  0  0  0  0  0  0  0  0  0  0
   50.6258   -3.2333   -6.7688 C   0  0  0  0  0  0  0  0  0  0  0  0
   51.0056   -4.3565   -6.0411 C   0  0  0  0  0  0  0  0  0  0  0  0
   50.3854   -4.7367   -4.8791 C   0  0  0  0  0  0  0  0  0  0  0  0
   49.3260   -3.9802   -4.3863 C   0  0  0  0  0  0  0  0  0  0  0  0
   48.9412   -2.8616   -5.1026 C   0  0  0  0  0  0  0  0  0  0  0  0
   49.5777   -2.4930   -6.2719 C   0  0  0  0  0  0  0  0  0  0  0  0
   57.0853   -4.4144   -8.3063 C   0  0  0  0  0  0  0  0  0  0  0  0
   56.3932   -5.1559   -7.1718 C   0  0  0  0  0  0  0  0  0  0  0  0
   59.2808   -5.5984   -8.6697 C   0  0  0  0  0  0  0  0  0  0  0  0
   57.8264   -5.4936   -9.0859 C   0  0  0  0  0  0  0  0  0  0  0  0
   56.4610   -3.0958  -13.7174 C   0  0  0  0  0  0  0  0  0  0  0  0
   56.1468   -3.4211  -15.1415 C   0  0  0  0  0  0  0  0  0  0  0  0
   56.3030   -4.8992  -15.4036 C   0  0  0  0  0  0  0  0  0  0  0  0
   55.8634   -5.7286  -14.5787 O   0  0  0  0  0  0  0  0  0  0  0  0
   56.9266   -5.3867  -16.5483 O   0  0  0  0  0  0  0  0  0  0  0  0
   56.7053   -6.2599  -16.9661 H   0  0  0  0  0  0  0  0  0  0  0  0
 44 45  1  0  0  0
 45 42  1  0  0  0
 42 43  1  0  0  0
 42 29  1  0  0  0
 29 30  1  0  0  0
 30 31  1  0  0  0
 31 32  2  0  0  0
 31 34  1  0  0  0
 34 35  1  0  0  0
 35 36  1  0  0  0
 36 37  2  0  0  0
 37 38  1  0  0  0
 38 39  2  0  0  0
 39 40  1  0  0  0
 40 41  2  0  0  0
 29 25  1  0  0  0
 25 26  2  0  0  0
 25 27  1  0  0  0
 27  1  1  0  0  0
  1 46  1  0  0  0
 46 47  1  0  0  0
 47 48  1  0  0  0
 48 49  2  0  0  0
 48 50  1  0  0  0
  1  2  1  0  0  0
  2  3  2  0  0  0
  2  4  1  0  0  0
  4  5  1  0  0  0
  5  6  1  0  0  0
  6  7  1  0  0  0
  7  8  1  0  0  0
  8  9  1  0  0  0
  9 10  2  0  0  0
  9 11  1  0  0  0
 11 13  1  0  0  0
 13 18  1  0  0  0
 18 19  1  0  0  0
 19 20  2  0  0  0
 20 21  1  0  0  0
 21 22  2  0  0  0
 22 23  1  0  0  0
 23 24  2  0  0  0
 13 14  1  0  0  0
 14 15  2  0  0  0
 14 16  1  0  0  0
 16 17  1  0  0  0
 41 36  1  0  0  0
  8  4  1  0  0  0
 24 19  1  0  0  0
 30 33  1  0  0  0
 27 28  1  0  0  0
 50 51  1  0  0  0
 11 12  1  0  0  0
M  END
> <minimizedAffinity>
-7.10485

> <CNNscore>
0.1635213047

> <CNNaffinity>
6.0280075073

> <CNN_VS>
0.9857076406

> <CNNaffinity_variance>
0.0930410177

$$$$
[H]OC(=O)C([H])([H])C([H])([H])[C@@]([H])(C(=O)N1C([H])([H])C([H])([H])C([H])([H])[C@@]1([H])C(=O)N([H])[C@]([H])(C(=O)OC([H])([H])[H])C([H])([H])c1c([H])c([H])c([H])c([H])c1[H])N([H])C(=O)[C@@]([H])(N([H])C(=O)OC([H])([H])c1c([H])c([H])c([H])c([H])c1[H])[C@@]([H])(C([H])([H])[H])C([H])([H])C([H])([H])[H]


 51 53  0  0  0  0  0  0  0  0999 V2000
   58.4573   -8.2624   -3.0071 C   0  0  0  0  0  0  0  0  0  0  0  0
   57.6614   -7.0679   -3.0188 C   0  0  0  0  0  0  0  0  0  0  0  0
   58.4107   -6.0170   -2.5880 O   0  0  0  0  0  0  0  0  0  0  0  0
   56.3820   -6.6504   -3.3189 N   0  0  0  0  0  0  0  0  0  0  0  0
   55.9743   -5.2203   -3.2116 C   0  0  0  0  0  0  0  0  0  0  0  0
   54.7623   -5.3565   -2.3137 C   0  0  0  0  0  0  0  0  0  0  0  0
   54.1142   -6.6008   -2.8183 C   0  0  0  0  0  0  0  0  0  0  0  0
   55.1830   -7.2975   -3.7004 C   0  0  0  0  0  0  0  0  0  0  0  0
   54.7301   -7.0709   -5.0830 C   0  0  0  0  0  0  0  0  0  0  0  0
   55.3570   -7.5584   -6.0383 O   0  0  0  0  0  0  0  0  0  0  0  0
   53.5736   -6.2900   -5.3234 N   0  0  0  0  0  0  0  0  0  0  0  0
   53.0091   -5.8708   -4.5532 H   0  0  0  0  0  0  0  0  0  0  0  0
   53.1420   -6.0511   -6.7149 C   0  0  0  0  0  0  0  0  0  0  0  0
   53.6280   -4.7482   -7.1850 C   0  0  0  0  0  0  0  0  0  0  0  0
   54.7958   -4.3450   -6.8216 O   0  0  0  0  0  0  0  0  0  0  0  0
   52.9442   -3.8982   -7.9969 O   0  0  0  0  0  0  0  0  0  0  0  0
   53.1975   -3.8144   -9.4080 C   0  0  0  0  0  0  0  0  0  0  0  0
   51.6498   -6.1201   -6.7581 C   0  0  0  0  0  0  0  0  0  0  0  0
   50.9320   -5.4288   -5.6949 C   0  0  0  0  0  0  0  0  0  0  0  0
   50.2175   -4.2887   -6.0560 C   0  0  0  0  0  0  0  0  0  0  0  0
   49.5147   -3.6280   -5.0899 C   0  0  0  0  0  0  0  0  0  0  0  0
   49.4872   -4.0480   -3.7766 C   0  0  0  0  0  0  0  0  0  0  0  0
   50.2187   -5.2034   -3.4473 C   0  0  0  0  0  0  0  0  0  0  0  0
   50.9238   -5.8709   -4.3968 C   0  0  0  0  0  0  0  0  0  0  0  0
   60.4227   -8.9045   -4.4906 C   0  0  0  0  0  0  0  0  0  0  0  0
   60.3329  -10.0652   -3.9434 O   0  0  0  0  0  0  0  0  0  0  0  0
   59.5102   -7.9343   -4.0731 N   0  0  0  0  0  0  0  0  0  0  0  0
   59.5097   -6.9709   -4.4550 H   0  0  0  0  0  0  0  0  0  0  0  0
   61.4748   -8.7496   -5.4742 C   0  0  0  0  0  0  0  0  0  0  0  0
   61.2530   -7.6381   -6.3627 N   0  0  0  0  0  0  0  0  0  0  0  0
   61.4001   -7.5554   -7.7525 C   0  0  0  0  0  0  0  0  0  0  0  0
   61.7700   -8.4397   -8.5468 O   0  0  0  0  0  0  0  0  0  0  0  0
   60.9197   -6.7162   -5.8936 H   0  0  0  0  0  0  0  0  0  0  0  0
   61.1053   -6.3219   -8.3967 O   0  0  0  0  0  0  0  0  0  0  0  0
   60.5339   -6.2719   -9.6782 C   0  0  0  0  0  0  0  0  0  0  0  0
   59.2336   -5.6160   -9.7470 C   0  0  0  0  0  0  0  0  0  0  0  0
   58.4724   -5.4728   -8.5913 C   0  0  0  0  0  0  0  0  0  0  0  0
   57.2399   -4.8727   -8.5801 C   0  0  0  0  0  0  0  0  0  0  0  0
   56.7061   -4.3770   -9.7661 C   0  0  0  0  0  0  0  0  0  0  0  0
   57.4554   -4.5144  -10.9203 C   0  0  0  0  0  0  0  0  0  0  0  0
   58.6961   -5.1219  -10.9133 C   0  0  0  0  0  0  0  0  0  0  0  0
   62.8860   -8.6656   -4.9363 C   0  0  0  0  0  0  0  0  0  0  0  0
   63.9158   -9.3376   -5.8330 C   0  0  0  0  0  0  0  0  0  0  0  0
   64.1867   -6.8481   -3.7704 C   0  0  0  0  0  0  0  0  0  0  0  0
   63.2727   -7.1918   -4.9307 C   0  0  0  0  0  0  0  0  0  0  0  0
   59.1267   -8.8659   -1.8736 C   0  0  0  0  0  0  0  0  0  0  0  0
   58.4155   -9.8764   -1.0335 C   0  0  0  0  0  0  0  0  0  0  0  0
   59.3698  -10.9388   -0.5453 C   0  0  0  0  0  0  0  0  0  0  0  0
   60.6030  -10.7513   -0.6201 O   0  0  0  0  0  0  0  0  0  0  0  0
   58.9254  -12.1413   -0.0034 O   0  0  0  0  0  0  0  0  0  0  0  0
   59.4321  -12.6597    0.6753 H   0  0  0  0  0  0  0  0  0  0  0  0
 44 45  1  0  0  0
 45 42  1  0  0  0
 42 43  1  0  0  0
 42 29  1  0  0  0
 29 30  1  0  0  0
 30 31  1  0  0  0
 31 32  2  0  0  0
 31 34  1  0  0  0
 34 35  1  0  0  0
 35 36  1  0  0  0
 36 37  2  0  0  0
 37 38  1  0  0  0
 38 39  2  0  0  0
 39 40  1  0  0  0
 40 41  2  0  0  0
 29 25  1  0  0  0
 25 26  2  0  0  0
 25 27  1  0  0  0
 27  1  1  0  0  0
  1 46  1  0  0  0
 46 47  1  0  0  0
 47 48  1  0  0  0
 48 49  2  0  0  0
 48 50  1  0  0  0
  1  2  1  0  0  0
  2  3  2  0  0  0
  2  4  1  0  0  0
  4  5  1  0  0  0
  5  6  1  0  0  0
  6  7  1  0  0  0
  7  8  1  0  0  0
  8  9  1  0  0  0
  9 10  2  0  0  0
  9 11  1  0  0  0
 11 13  1  0  0  0
 13 18  1  0  0  0
 18 19  1  0  0  0
 19 20  2  0  0  0
 20 21  1  0  0  0
 21 22  2  0  0  0
 22 23  1  0  0  0
 23 24  2  0  0  0
 13 14  1  0  0  0
 14 15  2  0  0  0
 14 16  1  0  0  0
 16 17  1  0  0  0
 41 36  1  0  0  0
  8  4  1  0  0  0
 24 19  1  0  0  0
 30 33  1  0  0  0
 27 28  1  0  0  0
 50 51  1  0  0  0
 11 12  1  0  0  0
M  END
> <minimizedAffinity>
-8.07617

> <CNNscore>
0.1473796219

> <CNNaffinity>
6.4853796959

> <CNN_VS>
0.9558128119

> <CNNaffinity_variance>
0.3871715069

$$$$
[H]OC(=O)C([H])([H])C([H])([H])[C@@]([H])(C(=O)N1C([H])([H])C([H])([H])C([H])([H])[C@@]1([H])C(=O)N([H])[C@]([H])(C(=O)OC([H])([H])[H])C([H])([H])c1c([H])c([H])c([H])c([H])c1[H])N([H])C(=O)[C@@]([H])(N([H])C(=O)OC([H])([H])c1c([H])c([H])c([H])c([H])c1[H])[C@@]([H])(C([H])([H])[H])C([H])([H])C([H])([H])[H]


 51 53  0  0  0  0  0  0  0  0999 V2000
   56.9998   -4.5208  -11.4447 C   0  0  0  0  0  0  0  0  0  0  0  0
   55.7111   -4.1167  -10.9586 C   0  0  0  0  0  0  0  0  0  0  0  0
   54.8954   -3.8346  -12.0105 O   0  0  0  0  0  0  0  0  0  0  0  0
   55.0426   -3.9165   -9.7694 N   0  0  0  0  0  0  0  0  0  0  0  0
   53.6110   -3.5019   -9.7304 C   0  0  0  0  0  0  0  0  0  0  0  0
   53.7141   -2.2743   -8.8496 C   0  0  0  0  0  0  0  0  0  0  0  0
   54.7197   -2.6832   -7.8276 C   0  0  0  0  0  0  0  0  0  0  0  0
   55.4032   -3.9517   -8.4017 C   0  0  0  0  0  0  0  0  0  0  0  0
   54.8512   -5.0631   -7.6092 C   0  0  0  0  0  0  0  0  0  0  0  0
   55.3897   -6.1824   -7.6349 O   0  0  0  0  0  0  0  0  0  0  0  0
   53.6977   -4.8536   -6.8152 N   0  0  0  0  0  0  0  0  0  0  0  0
   53.2190   -3.9292   -6.7533 H   0  0  0  0  0  0  0  0  0  0  0  0
   53.1403   -5.9814   -6.0425 C   0  0  0  0  0  0  0  0  0  0  0  0
   51.7065   -6.1320   -6.3185 C   0  0  0  0  0  0  0  0  0  0  0  0
   51.3337   -6.7486   -7.3859 O   0  0  0  0  0  0  0  0  0  0  0  0
   50.6994   -5.6717   -5.5292 O   0  0  0  0  0  0  0  0  0  0  0  0
   50.1755   -4.3402   -5.6517 C   0  0  0  0  0  0  0  0  0  0  0  0
   53.3879   -5.7198   -4.5922 C   0  0  0  0  0  0  0  0  0  0  0  0
   54.7289   -6.0015   -4.0963 C   0  0  0  0  0  0  0  0  0  0  0  0
   55.3331   -5.0149   -3.3202 C   0  0  0  0  0  0  0  0  0  0  0  0
   56.5807   -5.2536   -2.8199 C   0  0  0  0  0  0  0  0  0  0  0  0
   57.2595   -6.4310   -3.0544 C   0  0  0  0  0  0  0  0  0  0  0  0
   56.6195   -7.4057   -3.8410 C   0  0  0  0  0  0  0  0  0  0  0  0
   55.3790   -7.1826   -4.3468 C   0  0  0  0  0  0  0  0  0  0  0  0
   57.0664   -4.0041  -13.9356 C   0  0  0  0  0  0  0  0  0  0  0  0
   56.7790   -5.2466  -14.1035 O   0  0  0  0  0  0  0  0  0  0  0  0
   57.1957   -3.5552  -12.6203 N   0  0  0  0  0  0  0  0  0  0  0  0
   57.4293   -2.5724  -12.3889 H   0  0  0  0  0  0  0  0  0  0  0  0
   57.2280   -3.2241  -15.1454 C   0  0  0  0  0  0  0  0  0  0  0  0
   58.5892   -2.8099  -15.3685 N   0  0  0  0  0  0  0  0  0  0  0  0
   59.7602   -3.1682  -14.6899 C   0  0  0  0  0  0  0  0  0  0  0  0
   59.8888   -3.9347  -13.7174 O   0  0  0  0  0  0  0  0  0  0  0  0
   58.7436   -2.1121  -16.1872 H   0  0  0  0  0  0  0  0  0  0  0  0
   60.9957   -2.6115  -15.1222 O   0  0  0  0  0  0  0  0  0  0  0  0
   62.0280   -3.4092  -15.6410 C   0  0  0  0  0  0  0  0  0  0  0  0
   61.7662   -3.9734  -16.9597 C   0  0  0  0  0  0  0  0  0  0  0  0
   61.7717   -5.3539  -17.1318 C   0  0  0  0  0  0  0  0  0  0  0  0
   61.5396   -5.9552  -18.3416 C   0  0  0  0  0  0  0  0  0  0  0  0
   61.2849   -5.1695  -19.4619 C   0  0  0  0  0  0  0  0  0  0  0  0
   61.2770   -3.7960  -19.3009 C   0  0  0  0  0  0  0  0  0  0  0  0
   61.5128   -3.2067  -18.0739 C   0  0  0  0  0  0  0  0  0  0  0  0
   56.6960   -3.8455  -16.4178 C   0  0  0  0  0  0  0  0  0  0  0  0
   55.6843   -2.9690  -17.1417 C   0  0  0  0  0  0  0  0  0  0  0  0
   57.8659   -5.2854  -18.1244 C   0  0  0  0  0  0  0  0  0  0  0  0
   57.8716   -3.9643  -17.3798 C   0  0  0  0  0  0  0  0  0  0  0  0
   58.2405   -4.5940  -10.7013 C   0  0  0  0  0  0  0  0  0  0  0  0
   58.6846   -5.8921  -10.1095 C   0  0  0  0  0  0  0  0  0  0  0  0
   59.1390   -5.7061   -8.6824 C   0  0  0  0  0  0  0  0  0  0  0  0
   58.4958   -4.9578   -7.9156 O   0  0  0  0  0  0  0  0  0  0  0  0
   60.2655   -6.3465   -8.1742 O   0  0  0  0  0  0  0  0  0  0  0  0
   60.3729   -6.5956   -7.2189 H   0  0  0  0  0  0  0  0  0  0  0  0
 44 45  1  0  0  0
 45 42  1  0  0  0
 42 43  1  0  0  0
 42 29  1  0  0  0
 29 30  1  0  0  0
 30 31  1  0  0  0
 31 32  2  0  0  0
 31 34  1  0  0  0
 34 35  1  0  0  0
 35 36  1  0  0  0
 36 37  2  0  0  0
 37 38  1  0  0  0
 38 39  2  0  0  0
 39 40  1  0  0  0
 40 41  2  0  0  0
 29 25  1  0  0  0
 25 26  2  0  0  0
 25 27  1  0  0  0
 27  1  1  0  0  0
  1 46  1  0  0  0
 46 47  1  0  0  0
 47 48  1  0  0  0
 48 49  2  0  0  0
 48 50  1  0  0  0
  1  2  1  0  0  0
  2  3  2  0  0  0
  2  4  1  0  0  0
  4  5  1  0  0  0
  5  6  1  0  0  0
  6  7  1  0  0  0
  7  8  1  0  0  0
  8  9  1  0  0  0
  9 10  2  0  0  0
  9 11  1  0  0  0
 11 13  1  0  0  0
 13 18  1  0  0  0
 18 19  1  0  0  0
 19 20  2  0  0  0
 20 21  1  0  0  0
 21 22  2  0  0  0
 22 23  1  0  0  0
 23 24  2  0  0  0
 13 14  1  0  0  0
 14 15  2  0  0  0
 14 16  1  0  0  0
 16 17  1  0  0  0
 41 36  1  0  0  0
  8  4  1  0  0  0
 24 19  1  0  0  0
 30 33  1  0  0  0
 27 28  1  0  0  0
 50 51  1  0  0  0
 11 12  1  0  0  0
M  END
> <minimizedAffinity>
-6.58138

> <CNNscore>
0.1301636845

> <CNNaffinity>
6.4682021141

> <CNN_VS>
0.8419250250

> <CNNaffinity_variance>
0.5883404016

$$$$
[H]OC(=O)C([H])([H])C([H])([H])[C@@]([H])(C(=O)N1C([H])([H])C([H])([H])C([H])([H])[C@@]1([H])C(=O)N([H])[C@]([H])(C(=O)OC([H])([H])[H])C([H])([H])c1c([H])c([H])c([H])c([H])c1[H])N([H])C(=O)[C@@]([H])(N([H])C(=O)OC([H])([H])c1c([H])c([H])c([H])c([H])c1[H])[C@@]([H])(C([H])([H])[H])C([H])([H])C([H])([H])[H]


 51 53  0  0  0  0  0  0  0  0999 V2000
   58.1992   -3.9504  -13.5376 C   0  0  0  0  0  0  0  0  0  0  0  0
   59.6303   -4.0514  -13.5854 C   0  0  0  0  0  0  0  0  0  0  0  0
   60.0931   -4.5291  -12.3983 O   0  0  0  0  0  0  0  0  0  0  0  0
   60.6810   -3.8114  -14.4454 N   0  0  0  0  0  0  0  0  0  0  0  0
   62.0919   -4.1125  -14.0690 C   0  0  0  0  0  0  0  0  0  0  0  0
   62.7310   -2.7657  -14.3358 C   0  0  0  0  0  0  0  0  0  0  0  0
   62.0472   -2.3155  -15.5819 C   0  0  0  0  0  0  0  0  0  0  0  0
   60.8085   -3.2368  -15.7320 C   0  0  0  0  0  0  0  0  0  0  0  0
   61.1594   -4.1573  -16.8264 C   0  0  0  0  0  0  0  0  0  0  0  0
   61.2590   -3.7397  -17.9922 O   0  0  0  0  0  0  0  0  0  0  0  0
   61.3819   -5.5274  -16.5466 N   0  0  0  0  0  0  0  0  0  0  0  0
   61.3209   -5.9208  -15.5828 H   0  0  0  0  0  0  0  0  0  0  0  0
   61.7110   -6.4450  -17.6555 C   0  0  0  0  0  0  0  0  0  0  0  0
   60.5001   -7.1197  -18.1381 C   0  0  0  0  0  0  0  0  0  0  0  0
   60.1257   -8.2163  -17.5761 O   0  0  0  0  0  0  0  0  0  0  0  0
   59.7061   -6.6837  -19.1523 O   0  0  0  0  0  0  0  0  0  0  0  0
   58.2954   -6.4724  -18.9861 C   0  0  0  0  0  0  0  0  0  0  0  0
   62.7194   -7.4307  -17.1606 C   0  0  0  0  0  0  0  0  0  0  0  0
   63.6637   -6.9533  -16.1587 C   0  0  0  0  0  0  0  0  0  0  0  0
   64.5415   -5.9452  -16.5511 C   0  0  0  0  0  0  0  0  0  0  0  0
   65.4255   -5.4578  -15.6319 C   0  0  0  0  0  0  0  0  0  0  0  0
   65.4788   -5.9257  -14.3357 C   0  0  0  0  0  0  0  0  0  0  0  0
   64.5774   -6.9428  -13.9732 C   0  0  0  0  0  0  0  0  0  0  0  0
   63.6930   -7.4388  -14.8766 C   0  0  0  0  0  0  0  0  0  0  0  0
   56.9549   -4.1438  -11.3262 C   0  0  0  0  0  0  0  0  0  0  0  0
   56.2320   -5.0267  -11.9200 O   0  0  0  0  0  0  0  0  0  0  0  0
   57.9732   -3.5506  -12.0742 N   0  0  0  0  0  0  0  0  0  0  0  0
   58.6024   -2.8270  -11.6809 H   0  0  0  0  0  0  0  0  0  0  0  0
   56.6111   -3.8703   -9.9459 C   0  0  0  0  0  0  0  0  0  0  0  0
   55.2407   -4.1865   -9.6357 N   0  0  0  0  0  0  0  0  0  0  0  0
   54.2407   -3.3882   -9.0675 C   0  0  0  0  0  0  0  0  0  0  0  0
   54.3155   -2.2048   -8.6886 O   0  0  0  0  0  0  0  0  0  0  0  0
   54.9222   -5.1975   -9.8754 H   0  0  0  0  0  0  0  0  0  0  0  0
   52.9495   -3.9514   -8.8700 O   0  0  0  0  0  0  0  0  0  0  0  0
   52.5990   -4.6038   -7.6772 C   0  0  0  0  0  0  0  0  0  0  0  0
   51.4526   -4.0349   -6.9787 C   0  0  0  0  0  0  0  0  0  0  0  0
   50.8633   -2.8692   -7.4575 C   0  0  0  0  0  0  0  0  0  0  0  0
   49.7875   -2.2743   -6.8509 C   0  0  0  0  0  0  0  0  0  0  0  0
   49.2437   -2.8443   -5.7033 C   0  0  0  0  0  0  0  0  0  0  0  0
   49.8225   -4.0034   -5.2198 C   0  0  0  0  0  0  0  0  0  0  0  0
   50.9064   -4.5897   -5.8440 C   0  0  0  0  0  0  0  0  0  0  0  0
   57.5024   -4.4986   -8.8976 C   0  0  0  0  0  0  0  0  0  0  0  0
   56.7305   -5.1478   -7.7580 C   0  0  0  0  0  0  0  0  0  0  0  0
   59.6635   -5.7857   -9.0614 C   0  0  0  0  0  0  0  0  0  0  0  0
   58.2430   -5.6459   -9.5735 C   0  0  0  0  0  0  0  0  0  0  0  0
   57.3436   -3.1331  -14.3725 C   0  0  0  0  0  0  0  0  0  0  0  0
   56.2435   -3.7634  -15.1629 C   0  0  0  0  0  0  0  0  0  0  0  0
   56.4680   -3.5756  -16.6435 C   0  0  0  0  0  0  0  0  0  0  0  0
   57.6317   -3.5198  -17.0956 O   0  0  0  0  0  0  0  0  0  0  0  0
   55.4130   -3.4612  -17.5442 O   0  0  0  0  0  0  0  0  0  0  0  0
   55.4673   -3.7448  -18.4943 H   0  0  0  0  0  0  0  0  0  0  0  0
 44 45  1  0  0  0
 45 42  1  0  0  0
 42 43  1  0  0  0
 42 29  1  0  0  0
 29 30  1  0  0  0
 30 31  1  0  0  0
 31 32  2  0  0  0
 31 34  1  0  0  0
 34 35  1  0  0  0
 35 36  1  0  0  0
 36 37  2  0  0  0
 37 38  1  0  0  0
 38 39  2  0  0  0
 39 40  1  0  0  0
 40 41  2  0  0  0
 29 25  1  0  0  0
 25 26  2  0  0  0
 25 27  1  0  0  0
 27  1  1  0  0  0
  1 46  1  0  0  0
 46 47  1  0  0  0
 47 48  1  0  0  0
 48 49  2  0  0  0
 48 50  1  0  0  0
  1  2  1  0  0  0
  2  3  2  0  0  0
  2  4  1  0  0  0
  4  5  1  0  0  0
  5  6  1  0  0  0
  6  7  1  0  0  0
  7  8  1  0  0  0
  8  9  1  0  0  0
  9 10  2  0  0  0
  9 11  1  0  0  0
 11 13  1  0  0  0
 13 18  1  0  0  0
 18 19  1  0  0  0
 19 20  2  0  0  0
 20 21  1  0  0  0
 21 22  2  0  0  0
 22 23  1  0  0  0
 23 24  2  0  0  0
 13 14  1  0  0  0
 14 15  2  0  0  0
 14 16  1  0  0  0
 16 17  1  0  0  0
 41 36  1  0  0  0
  8  4  1  0  0  0
 24 19  1  0  0  0
 30 33  1  0  0  0
 27 28  1  0  0  0
 50 51  1  0  0  0
 11 12  1  0  0  0
M  END
> <minimizedAffinity>
-6.55097

> <CNNscore>
0.1032342687

> <CNNaffinity>
5.9992246628

> <CNN_VS>
0.6193255782

> <CNNaffinity_variance>
0.1184637547

$$$$
[H]OC(=O)C([H])([H])C([H])([H])[C@@]([H])(C(=O)N1C([H])([H])C([H])([H])C([H])([H])[C@@]1([H])C(=O)N([H])[C@]([H])(C(=O)OC([H])([H])[H])C([H])([H])c1c([H])c([H])c([H])c([H])c1[H])N([H])C(=O)[C@@]([H])(N([H])C(=O)OC([H])([H])c1c([H])c([H])c([H])c([H])c1[H])[C@@]([H])(C([H])([H])[H])C([H])([H])C([H])([H])[H]


 51 53  0  0  0  0  0  0  0  0999 V2000
   54.5912   -5.6284   -6.8625 C   0  0  0  0  0  0  0  0  0  0  0  0
   55.0118   -6.5137   -5.8138 C   0  0  0  0  0  0  0  0  0  0  0  0
   55.2819   -7.7413   -6.3349 O   0  0  0  0  0  0  0  0  0  0  0  0
   55.2203   -6.5175   -4.4508 N   0  0  0  0  0  0  0  0  0  0  0  0
   55.7246   -7.7239   -3.7343 C   0  0  0  0  0  0  0  0  0  0  0  0
   54.6543   -7.8688   -2.6727 C   0  0  0  0  0  0  0  0  0  0  0  0
   54.3758   -6.4556   -2.2877 C   0  0  0  0  0  0  0  0  0  0  0  0
   55.0117   -5.5878   -3.4050 C   0  0  0  0  0  0  0  0  0  0  0  0
   56.2206   -5.0154   -2.7894 C   0  0  0  0  0  0  0  0  0  0  0  0
   56.6805   -3.9341   -3.1928 O   0  0  0  0  0  0  0  0  0  0  0  0
   56.8632   -5.7045   -1.7323 N   0  0  0  0  0  0  0  0  0  0  0  0
   56.5073   -6.6083   -1.3530 H   0  0  0  0  0  0  0  0  0  0  0  0
   58.0874   -5.1319   -1.1380 C   0  0  0  0  0  0  0  0  0  0  0  0
   59.2349   -6.0148   -1.3794 C   0  0  0  0  0  0  0  0  0  0  0  0
   59.7451   -6.0732   -2.5604 O   0  0  0  0  0  0  0  0  0  0  0  0
   59.8344   -6.8010   -0.4458 O   0  0  0  0  0  0  0  0  0  0  0  0
   59.5176   -8.1938   -0.2974 C   0  0  0  0  0  0  0  0  0  0  0  0
   57.8495   -4.9408    0.3249 C   0  0  0  0  0  0  0  0  0  0  0  0
   56.6245   -5.5128    0.8685 C   0  0  0  0  0  0  0  0  0  0  0  0
   55.5177   -4.6704    0.9478 C   0  0  0  0  0  0  0  0  0  0  0  0
   54.3465   -5.1785    1.4314 C   0  0  0  0  0  0  0  0  0  0  0  0
   54.2215   -6.4894    1.8411 C   0  0  0  0  0  0  0  0  0  0  0  0
   55.3583   -7.3122    1.7462 C   0  0  0  0  0  0  0  0  0  0  0  0
   56.5309   -6.8212    1.2684 C   0  0  0  0  0  0  0  0  0  0  0  0
   52.0517   -5.4708   -6.8161 C   0  0  0  0  0  0  0  0  0  0  0  0
   52.0777   -6.3048   -7.7951 O   0  0  0  0  0  0  0  0  0  0  0  0
   53.2813   -5.0772   -6.2855 N   0  0  0  0  0  0  0  0  0  0  0  0
   53.3582   -4.4065   -5.4992 H   0  0  0  0  0  0  0  0  0  0  0  0
   50.7368   -5.0370   -6.3906 C   0  0  0  0  0  0  0  0  0  0  0  0
   50.3044   -5.6700   -5.1713 N   0  0  0  0  0  0  0  0  0  0  0  0
   50.8141   -5.5601   -3.8720 C   0  0  0  0  0  0  0  0  0  0  0  0
   51.7792   -4.8828   -3.4727 O   0  0  0  0  0  0  0  0  0  0  0  0
   49.4518   -6.3378   -5.2612 H   0  0  0  0  0  0  0  0  0  0  0  0
   50.1890   -6.2997   -2.8301 O   0  0  0  0  0  0  0  0  0  0  0  0
   50.7856   -6.4537   -1.5685 C   0  0  0  0  0  0  0  0  0  0  0  0
   50.7701   -7.8134   -1.0424 C   0  0  0  0  0  0  0  0  0  0  0  0
   49.9325   -8.1305    0.0222 C   0  0  0  0  0  0  0  0  0  0  0  0
   49.8684   -9.3846    0.5722 C   0  0  0  0  0  0  0  0  0  0  0  0
   50.6678  -10.4018    0.0589 C   0  0  0  0  0  0  0  0  0  0  0  0
   51.5036  -10.0964   -0.9997 C   0  0  0  0  0  0  0  0  0  0  0  0
   51.5554   -8.8269   -1.5419 C   0  0  0  0  0  0  0  0  0  0  0  0
   50.5353   -3.5437   -6.2589 C   0  0  0  0  0  0  0  0  0  0  0  0
   50.9668   -2.7643   -7.4929 C   0  0  0  0  0  0  0  0  0  0  0  0
   48.6639   -2.5947   -4.8621 C   0  0  0  0  0  0  0  0  0  0  0  0
   49.0344   -3.3055   -6.1494 C   0  0  0  0  0  0  0  0  0  0  0  0
   55.3350   -4.5284   -7.4405 C   0  0  0  0  0  0  0  0  0  0  0  0
   55.2849   -4.2810   -8.9131 C   0  0  0  0  0  0  0  0  0  0  0  0
   54.3368   -3.1525   -9.2379 C   0  0  0  0  0  0  0  0  0  0  0  0
   53.3368   -3.3655   -9.9563 O   0  0  0  0  0  0  0  0  0  0  0  0
   54.5324   -1.8599   -8.7603 O   0  0  0  0  0  0  0  0  0  0  0  0
   53.7934   -1.2202   -8.5851 H   0  0  0  0  0  0  0  0  0  0  0  0
 44 45  1  0  0  0
 45 42  1  0  0  0
 42 43  1  0  0  0
 42 29  1  0  0  0
 29 30  1  0  0  0
 30 31  1  0  0  0
 31 32  2  0  0  0
 31 34  1  0  0  0
 34 35  1  0  0  0
 35 36  1  0  0  0
 36 37  2  0  0  0
 37 38  1  0  0  0
 38 39  2  0  0  0
 39 40  1  0  0  0
 40 41  2  0  0  0
 29 25  1  0  0  0
 25 26  2  0  0  0
 25 27  1  0  0  0
 27  1  1  0  0  0
  1 46  1  0  0  0
 46 47  1  0  0  0
 47 48  1  0  0  0
 48 49  2  0  0  0
 48 50  1  0  0  0
  1  2  1  0  0  0
  2  3  2  0  0  0
  2  4  1  0  0  0
  4  5  1  0  0  0
  5  6  1  0  0  0
  6  7  1  0  0  0
  7  8  1  0  0  0
  8  9  1  0  0  0
  9 10  2  0  0  0
  9 11  1  0  0  0
 11 13  1  0  0  0
 13 18  1  0  0  0
 18 19  1  0  0  0
 19 20  2  0  0  0
 20 21  1  0  0  0
 21 22  2  0  0  0
 22 23  1  0  0  0
 23 24  2  0  0  0
 13 14  1  0  0  0
 14 15  2  0  0  0
 14 16  1  0  0  0
 16 17  1  0  0  0
 41 36  1  0  0  0
  8  4  1  0  0  0
 24 19  1  0  0  0
 30 33  1  0  0  0
 27 28  1  0  0  0
 50 51  1  0  0  0
 11 12  1  0  0  0
M  END
> <minimizedAffinity>
-8.44394

> <CNNscore>
0.0877389312

> <CNNaffinity>
6.4070281982

> <CNN_VS>
0.5621458292

> <CNNaffinity_variance>
1.8603630066

$$$$
[H]OC(=O)C([H])([H])C([H])([H])[C@@]([H])(C(=O)N1C([H])([H])C([H])([H])C([H])([H])[C@@]1([H])C(=O)N([H])[C@]([H])(C(=O)OC([H])([H])[H])C([H])([H])c1c([H])c([H])c([H])c([H])c1[H])N([H])C(=O)[C@@]([H])(N([H])C(=O)OC([H])([H])c1c([H])c([H])c([H])c([H])c1[H])[C@@]([H])(C([H])([H])[H])C([H])([H])C([H])([H])[H]


 51 53  0  0  0  0  0  0  0  0999 V2000
   57.2740   -6.8251   -2.2319 C   0  0  0  0  0  0  0  0  0  0  0  0
   57.7674   -8.1585   -2.0339 C   0  0  0  0  0  0  0  0  0  0  0  0
   56.8550   -9.0553   -2.4976 O   0  0  0  0  0  0  0  0  0  0  0  0
   58.8637   -8.8166   -1.5181 N   0  0  0  0  0  0  0  0  0  0  0  0
   58.9788  -10.3027   -1.5525 C   0  0  0  0  0  0  0  0  0  0  0  0
   59.2376  -10.5829   -0.0869 C   0  0  0  0  0  0  0  0  0  0  0  0
   60.1424   -9.4661    0.3093 C   0  0  0  0  0  0  0  0  0  0  0  0
   60.0356   -8.4205   -0.8315 C   0  0  0  0  0  0  0  0  0  0  0  0
   61.3014   -8.5477   -1.5728 C   0  0  0  0  0  0  0  0  0  0  0  0
   62.3890   -8.4916   -0.9751 O   0  0  0  0  0  0  0  0  0  0  0  0
   61.2768   -8.7327   -2.9765 N   0  0  0  0  0  0  0  0  0  0  0  0
   60.3884   -8.7975   -3.5188 H   0  0  0  0  0  0  0  0  0  0  0  0
   62.5527   -8.8364   -3.7120 C   0  0  0  0  0  0  0  0  0  0  0  0
   62.7616   -7.6459   -4.5449 C   0  0  0  0  0  0  0  0  0  0  0  0
   62.9053   -6.4991   -3.9769 O   0  0  0  0  0  0  0  0  0  0  0  0
   62.8240   -7.6356   -5.9033 O   0  0  0  0  0  0  0  0  0  0  0  0
   61.6468   -7.6463   -6.7258 C   0  0  0  0  0  0  0  0  0  0  0  0
   62.5119  -10.0780   -4.5427 C   0  0  0  0  0  0  0  0  0  0  0  0
   61.9028  -11.2531   -3.9330 C   0  0  0  0  0  0  0  0  0  0  0  0
   62.4992  -11.7403   -2.7721 C   0  0  0  0  0  0  0  0  0  0  0  0
   61.9423  -12.8267   -2.1610 C   0  0  0  0  0  0  0  0  0  0  0  0
   60.8159  -13.4545   -2.6500 C   0  0  0  0  0  0  0  0  0  0  0  0
   60.2390  -12.9356   -3.8231 C   0  0  0  0  0  0  0  0  0  0  0  0
   60.7820  -11.8562   -4.4432 C   0  0  0  0  0  0  0  0  0  0  0  0
   55.9947   -5.8977   -4.2266 C   0  0  0  0  0  0  0  0  0  0  0  0
   56.3689   -4.7408   -3.8070 O   0  0  0  0  0  0  0  0  0  0  0  0
   56.4104   -7.0057   -3.4866 N   0  0  0  0  0  0  0  0  0  0  0  0
   56.1540   -7.9756   -3.7465 H   0  0  0  0  0  0  0  0  0  0  0  0
   55.1753   -5.9016   -5.4212 C   0  0  0  0  0  0  0  0  0  0  0  0
   53.7736   -5.7257   -5.1407 N   0  0  0  0  0  0  0  0  0  0  0  0
   52.9991   -6.2223   -4.0855 C   0  0  0  0  0  0  0  0  0  0  0  0
   53.3538   -6.9478   -3.1382 O   0  0  0  0  0  0  0  0  0  0  0  0
   53.2218   -5.1152   -5.8505 H   0  0  0  0  0  0  0  0  0  0  0  0
   51.6169   -5.8895   -4.0394 O   0  0  0  0  0  0  0  0  0  0  0  0
   50.8009   -5.9485   -5.1804 C   0  0  0  0  0  0  0  0  0  0  0  0
   50.4534   -4.6548   -5.7560 C   0  0  0  0  0  0  0  0  0  0  0  0
   51.0871   -4.2253   -6.9177 C   0  0  0  0  0  0  0  0  0  0  0  0
   50.8164   -3.0202   -7.5125 C   0  0  0  0  0  0  0  0  0  0  0  0
   49.8688   -2.1720   -6.9466 C   0  0  0  0  0  0  0  0  0  0  0  0
   49.2333   -2.5903   -5.7919 C   0  0  0  0  0  0  0  0  0  0  0  0
   49.5184   -3.8084   -5.2059 C   0  0  0  0  0  0  0  0  0  0  0  0
   55.5767   -4.9321   -6.5106 C   0  0  0  0  0  0  0  0  0  0  0  0
   56.8260   -5.3577   -7.2685 C   0  0  0  0  0  0  0  0  0  0  0  0
   54.4719   -3.6965   -8.4098 C   0  0  0  0  0  0  0  0  0  0  0  0
   54.4632   -4.9460   -7.5506 C   0  0  0  0  0  0  0  0  0  0  0  0
   56.5435   -6.0051   -1.2880 C   0  0  0  0  0  0  0  0  0  0  0  0
   57.2807   -5.1308   -0.3264 C   0  0  0  0  0  0  0  0  0  0  0  0
   58.4590   -4.4669   -0.9963 C   0  0  0  0  0  0  0  0  0  0  0  0
   59.6195   -4.7128   -0.6037 O   0  0  0  0  0  0  0  0  0  0  0  0
   58.3043   -3.5761   -2.0545 O   0  0  0  0  0  0  0  0  0  0  0  0
   58.9840   -3.4435   -2.7662 H   0  0  0  0  0  0  0  0  0  0  0  0
 44 45  1  0  0  0
 45 42  1  0  0  0
 42 43  1  0  0  0
 42 29  1  0  0  0
 29 30  1  0  0  0
 30 31  1  0  0  0
 31 32  2  0  0  0
 31 34  1  0  0  0
 34 35  1  0  0  0
 35 36  1  0  0  0
 36 37  2  0  0  0
 37 38  1  0  0  0
 38 39  2  0  0  0
 39 40  1  0  0  0
 40 41  2  0  0  0
 29 25  1  0  0  0
 25 26  2  0  0  0
 25 27  1  0  0  0
 27  1  1  0  0  0
  1 46  1  0  0  0
 46 47  1  0  0  0
 47 48  1  0  0  0
 48 49  2  0  0  0
 48 50  1  0  0  0
  1  2  1  0  0  0
  2  3  2  0  0  0
  2  4  1  0  0  0
  4  5  1  0  0  0
  5  6  1  0  0  0
  6  7  1  0  0  0
  7  8  1  0  0  0
  8  9  1  0  0  0
  9 10  2  0  0  0
  9 11  1  0  0  0
 11 13  1  0  0  0
 13 18  1  0  0  0
 18 19  1  0  0  0
 19 20  2  0  0  0
 20 21  1  0  0  0
 21 22  2  0  0  0
 22 23  1  0  0  0
 23 24  2  0  0  0
 13 14  1  0  0  0
 14 15  2  0  0  0
 14 16  1  0  0  0
 16 17  1  0  0  0
 41 36  1  0  0  0
  8  4  1  0  0  0
 24 19  1  0  0  0
 30 33  1  0  0  0
 27 28  1  0  0  0
 50 51  1  0  0  0
 11 12  1  0  0  0
M  END
> <minimizedAffinity>
-7.54664

> <CNNscore>
0.0863889158

> <CNNaffinity>
5.8465690613

> <CNN_VS>
0.5050787330

> <CNNaffinity_variance>
0.5011057854

$$$$
[H]OC(=O)C([H])([H])C([H])([H])[C@@]([H])(C(=O)N1C([H])([H])C([H])([H])C([H])([H])[C@@]1([H])C(=O)N([H])[C@]([H])(C(=O)OC([H])([H])[H])C([H])([H])c1c([H])c([H])c([H])c([H])c1[H])N([H])C(=O)[C@@]([H])(N([H])C(=O)OC([H])([H])c1c([H])c([H])c([H])c([H])c1[H])[C@@]([H])(C([H])([H])[H])C([H])([H])C([H])([H])[H]


 51 53  0  0  0  0  0  0  0  0999 V2000
   53.8978   -4.8077   -6.9153 C   0  0  0  0  0  0  0  0  0  0  0  0
   54.2456   -5.8720   -6.0170 C   0  0  0  0  0  0  0  0  0  0  0  0
   54.1989   -7.0601   -6.6787 O   0  0  0  0  0  0  0  0  0  0  0  0
   54.6025   -6.0729   -4.7005 N   0  0  0  0  0  0  0  0  0  0  0  0
   54.9285   -7.4277   -4.1703 C   0  0  0  0  0  0  0  0  0  0  0  0
   53.9788   -7.4874   -2.9922 C   0  0  0  0  0  0  0  0  0  0  0  0
   54.0398   -6.1011   -2.4468 C   0  0  0  0  0  0  0  0  0  0  0  0
   54.7080   -5.2474   -3.5562 C   0  0  0  0  0  0  0  0  0  0  0  0
   56.0701   -4.9911   -3.0592 C   0  0  0  0  0  0  0  0  0  0  0  0
   56.6366   -3.9129   -3.3039 O   0  0  0  0  0  0  0  0  0  0  0  0
   56.7379   -5.9822   -2.2998 N   0  0  0  0  0  0  0  0  0  0  0  0
   56.2982   -6.8969   -2.0599 H   0  0  0  0  0  0  0  0  0  0  0  0
   58.1120   -5.7227   -1.8260 C   0  0  0  0  0  0  0  0  0  0  0  0
   59.0201   -6.7807   -2.2849 C   0  0  0  0  0  0  0  0  0  0  0  0
   58.6585   -8.0116   -2.1718 O   0  0  0  0  0  0  0  0  0  0  0  0
   60.2454   -6.5816   -2.8398 O   0  0  0  0  0  0  0  0  0  0  0  0
   61.0674   -7.6676   -3.2951 C   0  0  0  0  0  0  0  0  0  0  0  0
   58.0830   -5.6436   -0.3340 C   0  0  0  0  0  0  0  0  0  0  0  0
   56.8101   -5.9370    0.3120 C   0  0  0  0  0  0  0  0  0  0  0  0
   56.0062   -4.8482    0.6421 C   0  0  0  0  0  0  0  0  0  0  0  0
   54.7965   -5.0866    1.2284 C   0  0  0  0  0  0  0  0  0  0  0  0
   54.3452   -6.3605    1.5030 C   0  0  0  0  0  0  0  0  0  0  0  0
   55.1817   -7.4365    1.1554 C   0  0  0  0  0  0  0  0  0  0  0  0
   56.3884   -7.2155    0.5727 C   0  0  0  0  0  0  0  0  0  0  0  0
   56.0095   -4.3163   -8.2475 C   0  0  0  0  0  0  0  0  0  0  0  0
   56.2298   -3.3957   -7.3765 O   0  0  0  0  0  0  0  0  0  0  0  0
   54.8506   -5.0774   -8.0866 N   0  0  0  0  0  0  0  0  0  0  0  0
   54.5894   -5.8372   -8.7411 H   0  0  0  0  0  0  0  0  0  0  0  0
   56.9986   -4.4412   -9.2985 C   0  0  0  0  0  0  0  0  0  0  0  0
   57.8815   -5.5629   -9.1076 N   0  0  0  0  0  0  0  0  0  0  0  0
   59.0412   -5.9224   -9.8047 C   0  0  0  0  0  0  0  0  0  0  0  0
   59.5757   -5.3456  -10.7697 O   0  0  0  0  0  0  0  0  0  0  0  0
   57.6172   -6.2416   -8.3011 H   0  0  0  0  0  0  0  0  0  0  0  0
   59.7415   -7.0938   -9.4039 O   0  0  0  0  0  0  0  0  0  0  0  0
   61.0995   -7.2860   -9.7043 C   0  0  0  0  0  0  0  0  0  0  0  0
   62.0142   -7.0547   -8.5928 C   0  0  0  0  0  0  0  0  0  0  0  0
   62.9854   -6.0638   -8.6947 C   0  0  0  0  0  0  0  0  0  0  0  0
   63.8823   -5.7933   -7.6939 C   0  0  0  0  0  0  0  0  0  0  0  0
   63.8383   -6.5304   -6.5140 C   0  0  0  0  0  0  0  0  0  0  0  0
   62.8762   -7.5175   -6.4030 C   0  0  0  0  0  0  0  0  0  0  0  0
   61.9798   -7.7765   -7.4218 C   0  0  0  0  0  0  0  0  0  0  0  0
   56.4685   -4.4774  -10.7147 C   0  0  0  0  0  0  0  0  0  0  0  0
   55.0127   -4.0482  -10.8266 C   0  0  0  0  0  0  0  0  0  0  0  0
   57.2102   -3.7101  -12.9984 C   0  0  0  0  0  0  0  0  0  0  0  0
   57.2470   -3.4349  -11.5076 C   0  0  0  0  0  0  0  0  0  0  0  0
   52.5890   -4.4982   -7.4522 C   0  0  0  0  0  0  0  0  0  0  0  0
   51.4368   -4.2627   -6.5306 C   0  0  0  0  0  0  0  0  0  0  0  0
   50.6856   -3.0117   -6.9159 C   0  0  0  0  0  0  0  0  0  0  0  0
   49.7073   -2.6371   -6.2346 O   0  0  0  0  0  0  0  0  0  0  0  0
   51.0446   -2.2420   -8.0186 O   0  0  0  0  0  0  0  0  0  0  0  0
   50.8884   -1.2633   -8.0809 H   0  0  0  0  0  0  0  0  0  0  0  0
 44 45  1  0  0  0
 45 42  1  0  0  0
 42 43  1  0  0  0
 42 29  1  0  0  0
 29 30  1  0  0  0
 30 31  1  0  0  0
 31 32  2  0  0  0
 31 34  1  0  0  0
 34 35  1  0  0  0
 35 36  1  0  0  0
 36 37  2  0  0  0
 37 38  1  0  0  0
 38 39  2  0  0  0
 39 40  1  0  0  0
 40 41  2  0  0  0
 29 25  1  0  0  0
 25 26  2  0  0  0
 25 27  1  0  0  0
 27  1  1  0  0  0
  1 46  1  0  0  0
 46 47  1  0  0  0
 47 48  1  0  0  0
 48 49  2  0  0  0
 48 50  1  0  0  0
  1  2  1  0  0  0
  2  3  2  0  0  0
  2  4  1  0  0  0
  4  5  1  0  0  0
  5  6  1  0  0  0
  6  7  1  0  0  0
  7  8  1  0  0  0
  8  9  1  0  0  0
  9 10  2  0  0  0
  9 11  1  0  0  0
 11 13  1  0  0  0
 13 18  1  0  0  0
 18 19  1  0  0  0
 19 20  2  0  0  0
 20 21  1  0  0  0
 21 22  2  0  0  0
 22 23  1  0  0  0
 23 24  2  0  0  0
 13 14  1  0  0  0
 14 15  2  0  0  0
 14 16  1  0  0  0
 16 17  1  0  0  0
 41 36  1  0  0  0
  8  4  1  0  0  0
 24 19  1  0  0  0
 30 33  1  0  0  0
 27 28  1  0  0  0
 50 51  1  0  0  0
 11 12  1  0  0  0
M  END
> <minimizedAffinity>
-7.87620

> <CNNscore>
0.0847777352

> <CNNaffinity>
6.4228348732

> <CNN_VS>
0.5445134044

> <CNNaffinity_variance>
0.7939155698

$$$$
[H]Oc1c([H])c([H])c([H])c(C2([H])C([H])([H])N(C([H])([H])C([H])([H])C([H])([H])C([H])([H])C([H])([H])C([H])([H])C([H])([H])C([H])([H])C([H])([H])[H])C([H])([H])C2([H])[H])c1[H]


 22 23  0  0  0  0  0  0  0  0999 V2000
   53.1686   -3.8365   -8.6239 N   0  0  0  0  0  0  0  0  0  0  0  0
   52.8158   -2.4462   -8.5298 C   0  0  0  0  0  0  0  0  0  0  0  0
   51.4107   -2.3937   -7.9847 C   0  0  0  0  0  0  0  0  0  0  0  0
   51.1226   -3.8060   -7.5658 C   0  0  0  0  0  0  0  0  0  0  0  0
   52.4469   -4.4710   -7.5107 C   0  0  0  0  0  0  0  0  0  0  0  0
   50.3945   -3.8604   -6.2672 C   0  0  0  0  0  0  0  0  0  0  0  0
   50.7585   -4.8268   -5.3553 C   0  0  0  0  0  0  0  0  0  0  0  0
   50.1102   -4.9190   -4.1190 C   0  0  0  0  0  0  0  0  0  0  0  0
   49.1023   -4.0244   -3.8340 C   0  0  0  0  0  0  0  0  0  0  0  0
   48.7584   -3.0727   -4.7567 C   0  0  0  0  0  0  0  0  0  0  0  0
   47.7421   -2.1840   -4.4486 O   0  0  0  0  0  0  0  0  0  0  0  0
   49.3943   -2.9663   -5.9949 C   0  0  0  0  0  0  0  0  0  0  0  0
   47.2504   -2.2246   -3.5602 H   0  0  0  0  0  0  0  0  0  0  0  0
   54.5643   -4.1122   -8.5376 C   0  0  0  0  0  0  0  0  0  0  0  0
   54.9429   -5.1499   -7.5297 C   0  0  0  0  0  0  0  0  0  0  0  0
   56.4073   -5.2789   -7.3011 C   0  0  0  0  0  0  0  0  0  0  0  0
   57.2852   -4.5189   -8.2385 C   0  0  0  0  0  0  0  0  0  0  0  0
   58.3128   -5.4519   -8.9283 C   0  0  0  0  0  0  0  0  0  0  0  0
   58.2714   -5.2738  -10.3956 C   0  0  0  0  0  0  0  0  0  0  0  0
   57.3118   -4.3393  -10.9929 C   0  0  0  0  0  0  0  0  0  0  0  0
   56.4586   -3.8394  -13.2541 C   0  0  0  0  0  0  0  0  0  0  0  0
   57.5947   -3.7030  -12.3041 C   0  0  0  0  0  0  0  0  0  0  0  0
 21 22  1  0  0  0
 22 20  1  0  0  0
 20 19  1  0  0  0
 19 18  1  0  0  0
 18 17  1  0  0  0
 17 16  1  0  0  0
 16 15  1  0  0  0
 15 14  1  0  0  0
 14  1  1  0  0  0
  1  2  1  0  0  0
  2  3  1  0  0  0
  3  4  1  0  0  0
  4  6  1  0  0  0
  6  7  2  0  0  0
  7  8  1  0  0  0
  8  9  2  0  0  0
  9 10  1  0  0  0
 10 11  1  0  0  0
 10 12  2  0  0  0
  4  5  1  0  0  0
  5  1  1  0  0  0
 12  6  1  0  0  0
 11 13  1  0  0  0
M  END
> <minimizedAffinity>
-8.20891

> <CNNscore>
0.4446414113

> <CNNaffinity>
6.2677445412

> <CNN_VS>
2.7868988514

> <CNNaffinity_variance>
0.0638247654

$$$$
[H]Oc1c([H])c([H])c([H])c(C2([H])C([H])([H])N(C([H])([H])C([H])([H])C([H])([H])C([H])([H])C([H])([H])C([H])([H])C([H])([H])C([H])([H])C([H])([H])[H])C([H])([H])C2([H])[H])c1[H]


 22 23  0  0  0  0  0  0  0  0999 V2000
   52.4688   -3.6477   -8.4687 N   0  0  0  0  0  0  0  0  0  0  0  0
   51.7277   -2.4843   -8.0642 C   0  0  0  0  0  0  0  0  0  0  0  0
   50.6423   -2.9661   -7.1346 C   0  0  0  0  0  0  0  0  0  0  0  0
   50.9895   -4.4027   -6.8724 C   0  0  0  0  0  0  0  0  0  0  0  0
   52.4006   -4.5450   -7.3055 C   0  0  0  0  0  0  0  0  0  0  0  0
   50.7844   -4.7695   -5.4431 C   0  0  0  0  0  0  0  0  0  0  0  0
   49.7743   -4.1421   -4.7471 C   0  0  0  0  0  0  0  0  0  0  0  0
   49.5360   -4.4528   -3.4041 C   0  0  0  0  0  0  0  0  0  0  0  0
   50.3316   -5.3973   -2.7939 C   0  0  0  0  0  0  0  0  0  0  0  0
   51.3294   -6.0071   -3.5065 C   0  0  0  0  0  0  0  0  0  0  0  0
   52.1168   -6.9535   -2.8726 O   0  0  0  0  0  0  0  0  0  0  0  0
   51.5813   -5.7094   -4.8470 C   0  0  0  0  0  0  0  0  0  0  0  0
   51.9708   -7.2012   -1.8979 H   0  0  0  0  0  0  0  0  0  0  0  0
   53.8247   -3.4028   -8.8332 C   0  0  0  0  0  0  0  0  0  0  0  0
   54.7958   -4.4545   -8.4008 C   0  0  0  0  0  0  0  0  0  0  0  0
   56.2220   -4.0347   -8.4581 C   0  0  0  0  0  0  0  0  0  0  0  0
   56.9952   -4.5051   -9.6446 C   0  0  0  0  0  0  0  0  0  0  0  0
   56.2033   -4.2798  -10.9577 C   0  0  0  0  0  0  0  0  0  0  0  0
   57.1272   -4.0127  -12.0809 C   0  0  0  0  0  0  0  0  0  0  0  0
   56.8273   -4.5390  -13.4165 C   0  0  0  0  0  0  0  0  0  0  0  0
   56.4193   -4.3425  -15.8426 C   0  0  0  0  0  0  0  0  0  0  0  0
   56.5990   -3.6165  -14.5571 C   0  0  0  0  0  0  0  0  0  0  0  0
 21 22  1  0  0  0
 22 20  1  0  0  0
 20 19  1  0  0  0
 19 18  1  0  0  0
 18 17  1  0  0  0
 17 16  1  0  0  0
 16 15  1  0  0  0
 15 14  1  0  0  0
 14  1  1  0  0  0
  1  2  1  0  0  0
  2  3  1  0  0  0
  3  4  1  0  0  0
  4  6  1  0  0  0
  6  7  2  0  0  0
  7  8  1  0  0  0
  8  9  2  0  0  0
  9 10  1  0  0  0
 10 11  1  0  0  0
 10 12  2  0  0  0
  4  5  1  0  0  0
  5  1  1  0  0  0
 12  6  1  0  0  0
 11 13  1  0  0  0
M  END
> <minimizedAffinity>
-7.68686

> <CNNscore>
0.4120700657

> <CNNaffinity>
6.0863723755

> <CNN_VS>
2.5080118179

> <CNNaffinity_variance>
0.1667554229

$$$$
[H]Oc1c([H])c([H])c([H])c(C2([H])C([H])([H])N(C([H])([H])C([H])([H])C([H])([H])C([H])([H])C([H])([H])C([H])([H])C([H])([H])C([H])([H])C([H])([H])[H])C([H])([H])C2([H])[H])c1[H]


 22 23  0  0  0  0  0  0  0  0999 V2000
   54.0294   -4.9379   -7.7440 N   0  0  0  0  0  0  0  0  0  0  0  0
   53.7395   -3.6292   -8.2630 C   0  0  0  0  0  0  0  0  0  0  0  0
   52.2521   -3.4273   -8.1173 C   0  0  0  0  0  0  0  0  0  0  0  0
   51.8011   -4.5866   -7.2774 C   0  0  0  0  0  0  0  0  0  0  0  0
   53.0406   -5.1317   -6.6727 C   0  0  0  0  0  0  0  0  0  0  0  0
   50.7950   -4.1738   -6.2591 C   0  0  0  0  0  0  0  0  0  0  0  0
   50.0341   -3.0531   -6.5108 C   0  0  0  0  0  0  0  0  0  0  0  0
   49.0722   -2.6245   -5.5899 C   0  0  0  0  0  0  0  0  0  0  0  0
   48.9027   -3.3457   -4.4286 C   0  0  0  0  0  0  0  0  0  0  0  0
   49.6710   -4.4562   -4.2009 C   0  0  0  0  0  0  0  0  0  0  0  0
   49.4834   -5.1657   -3.0266 O   0  0  0  0  0  0  0  0  0  0  0  0
   50.6354   -4.8980   -5.1084 C   0  0  0  0  0  0  0  0  0  0  0  0
   48.7940   -4.8805   -2.3366 H   0  0  0  0  0  0  0  0  0  0  0  0
   55.3521   -5.1083   -7.2411 C   0  0  0  0  0  0  0  0  0  0  0  0
   56.4101   -4.3459   -7.9729 C   0  0  0  0  0  0  0  0  0  0  0  0
   57.5280   -5.1837   -8.4846 C   0  0  0  0  0  0  0  0  0  0  0  0
   57.8019   -5.0858   -9.9483 C   0  0  0  0  0  0  0  0  0  0  0  0
   56.6895   -4.2897  -10.6769 C   0  0  0  0  0  0  0  0  0  0  0  0
   57.2754   -3.4018  -11.7040 C   0  0  0  0  0  0  0  0  0  0  0  0
   57.3179   -3.8318  -13.1055 C   0  0  0  0  0  0  0  0  0  0  0  0
   56.0805   -4.6396  -15.0821 C   0  0  0  0  0  0  0  0  0  0  0  0
   56.3277   -4.8082  -13.6253 C   0  0  0  0  0  0  0  0  0  0  0  0
 21 22  1  0  0  0
 22 20  1  0  0  0
 20 19  1  0  0  0
 19 18  1  0  0  0
 18 17  1  0  0  0
 17 16  1  0  0  0
 16 15  1  0  0  0
 15 14  1  0  0  0
 14  1  1  0  0  0
  1  2  1  0  0  0
  2  3  1  0  0  0
  3  4  1  0  0  0
  4  6  1  0  0  0
  6  7  2  0  0  0
  7  8  1  0  0  0
  8  9  2  0  0  0
  9 10  1  0  0  0
 10 11  1  0  0  0
 10 12  2  0  0  0
  4  5  1  0  0  0
  5  1  1  0  0  0
 12  6  1  0  0  0
 11 13  1  0  0  0
M  END
> <minimizedAffinity>
-8.49598

> <CNNscore>
0.3923715055

> <CNNaffinity>
6.1233463287

> <CNN_VS>
2.4026265144

> <CNNaffinity_variance>
0.0576439984

$$$$
[H]Oc1c([H])c([H])c([H])c(C2([H])C([H])([H])N(C([H])([H])C([H])([H])C([H])([H])C([H])([H])C([H])([H])C([H])([H])C([H])([H])C([H])([H])C([H])([H])[H])C([H])([H])C2([H])[H])c1[H]


 22 23  0  0  0  0  0  0  0  0999 V2000
   53.8204   -6.7281   -5.5071 N   0  0  0  0  0  0  0  0  0  0  0  0
   53.7110   -6.7293   -6.9403 C   0  0  0  0  0  0  0  0  0  0  0  0
   52.3118   -6.2707   -7.2663 C   0  0  0  0  0  0  0  0  0  0  0  0
   51.7624   -5.7943   -5.9532 C   0  0  0  0  0  0  0  0  0  0  0  0
   52.9465   -5.6265   -5.0764 C   0  0  0  0  0  0  0  0  0  0  0  0
   50.9742   -4.5393   -6.1058 C   0  0  0  0  0  0  0  0  0  0  0  0
   51.2564   -3.7178   -7.1753 C   0  0  0  0  0  0  0  0  0  0  0  0
   50.5431   -2.5298   -7.3676 C   0  0  0  0  0  0  0  0  0  0  0  0
   49.5548   -2.2000   -6.4665 C   0  0  0  0  0  0  0  0  0  0  0  0
   49.2929   -3.0327   -5.4114 C   0  0  0  0  0  0  0  0  0  0  0  0
   48.2950   -2.6809   -4.5181 O   0  0  0  0  0  0  0  0  0  0  0  0
   49.9946   -4.2216   -5.2040 C   0  0  0  0  0  0  0  0  0  0  0  0
   47.7592   -1.8245   -4.6285 H   0  0  0  0  0  0  0  0  0  0  0  0
   55.1410   -6.5459   -5.0028 C   0  0  0  0  0  0  0  0  0  0  0  0
   55.7030   -5.1719   -5.1832 C   0  0  0  0  0  0  0  0  0  0  0  0
   56.3312   -4.9346   -6.5108 C   0  0  0  0  0  0  0  0  0  0  0  0
   56.1390   -3.5735   -7.0916 C   0  0  0  0  0  0  0  0  0  0  0  0
   54.9923   -3.5634   -8.1343 C   0  0  0  0  0  0  0  0  0  0  0  0
   55.4023   -4.2772   -9.3626 C   0  0  0  0  0  0  0  0  0  0  0  0
   56.6952   -3.9774   -9.9866 C   0  0  0  0  0  0  0  0  0  0  0  0
   58.5099   -5.5589   -9.4421 C   0  0  0  0  0  0  0  0  0  0  0  0
   57.5653   -5.0730  -10.4831 C   0  0  0  0  0  0  0  0  0  0  0  0
 21 22  1  0  0  0
 22 20  1  0  0  0
 20 19  1  0  0  0
 19 18  1  0  0  0
 18 17  1  0  0  0
 17 16  1  0  0  0
 16 15  1  0  0  0
 15 14  1  0  0  0
 14  1  1  0  0  0
  1  2  1  0  0  0
  2  3  1  0  0  0
  3  4  1  0  0  0
  4  6  1  0  0  0
  6  7  2  0  0  0
  7  8  1  0  0  0
  8  9  2  0  0  0
  9 10  1  0  0  0
 10 11  1  0  0  0
 10 12  2  0  0  0
  4  5  1  0  0  0
  5  1  1  0  0  0
 12  6  1  0  0  0
 11 13  1  0  0  0
M  END
> <minimizedAffinity>
-7.87226

> <CNNscore>
0.3414511681

> <CNNaffinity>
6.0217595100

> <CNN_VS>
2.0561368465

> <CNNaffinity_variance>
0.1604029983

$$$$
[H]Oc1c([H])c([H])c([H])c(C2([H])C([H])([H])N(C([H])([H])C([H])([H])C([H])([H])C([H])([H])C([H])([H])C([H])([H])C([H])([H])C([H])([H])C([H])([H])[H])C([H])([H])C2([H])[H])c1[H]


 22 23  0  0  0  0  0  0  0  0999 V2000
   55.8274   -4.5186   -9.0505 N   0  0  0  0  0  0  0  0  0  0  0  0
   57.2362   -4.6158   -8.7822 C   0  0  0  0  0  0  0  0  0  0  0  0
   57.8920   -5.0446  -10.0707 C   0  0  0  0  0  0  0  0  0  0  0  0
   56.8012   -4.9357  -11.0961 C   0  0  0  0  0  0  0  0  0  0  0  0
   55.7532   -4.1021  -10.4590 C   0  0  0  0  0  0  0  0  0  0  0  0
   57.3001   -4.3581  -12.3755 C   0  0  0  0  0  0  0  0  0  0  0  0
   56.4257   -4.2706  -13.4366 C   0  0  0  0  0  0  0  0  0  0  0  0
   56.8416   -3.7323  -14.6590 C   0  0  0  0  0  0  0  0  0  0  0  0
   58.1415   -3.2926  -14.7784 C   0  0  0  0  0  0  0  0  0  0  0  0
   58.9920   -3.3901  -13.7095 C   0  0  0  0  0  0  0  0  0  0  0  0
   60.2943   -2.9417  -13.8525 O   0  0  0  0  0  0  0  0  0  0  0  0
   58.5941   -3.9245  -12.4827 C   0  0  0  0  0  0  0  0  0  0  0  0
   60.6284   -2.5466  -14.7271 H   0  0  0  0  0  0  0  0  0  0  0  0
   55.1165   -3.6041   -8.2200 C   0  0  0  0  0  0  0  0  0  0  0  0
   53.6560   -3.8886   -8.0713 C   0  0  0  0  0  0  0  0  0  0  0  0
   53.3245   -4.8467   -6.9825 C   0  0  0  0  0  0  0  0  0  0  0  0
   52.3201   -5.8977   -7.3193 C   0  0  0  0  0  0  0  0  0  0  0  0
   51.3301   -6.1257   -6.1487 C   0  0  0  0  0  0  0  0  0  0  0  0
   50.8931   -4.8325   -5.5802 C   0  0  0  0  0  0  0  0  0  0  0  0
   49.7410   -4.1314   -6.1564 C   0  0  0  0  0  0  0  0  0  0  0  0
   50.4323   -2.1768   -7.4952 C   0  0  0  0  0  0  0  0  0  0  0  0
   49.7377   -2.6510   -6.2686 C   0  0  0  0  0  0  0  0  0  0  0  0
 21 22  1  0  0  0
 22 20  1  0  0  0
 20 19  1  0  0  0
 19 18  1  0  0  0
 18 17  1  0  0  0
 17 16  1  0  0  0
 16 15  1  0  0  0
 15 14  1  0  0  0
 14  1  1  0  0  0
  1  2  1  0  0  0
  2  3  1  0  0  0
  3  4  1  0  0  0
  4  6  1  0  0  0
  6  7  2  0  0  0
  7  8  1  0  0  0
  8  9  2  0  0  0
  9 10  1  0  0  0
 10 11  1  0  0  0
 10 12  2  0  0  0
  4  5  1  0  0  0
  5  1  1  0  0  0
 12  6  1  0  0  0
 11 13  1  0  0  0
M  END
> <minimizedAffinity>
-6.87641

> <CNNscore>
0.3021925092

> <CNNaffinity>
5.6811347008

> <CNN_VS>
1.7167963982

> <CNNaffinity_variance>
0.0305348132

$$$$
[H]Oc1c([H])c([H])c([H])c(C2([H])C([H])([H])N(C([H])([H])C([H])([H])C([H])([H])C([H])([H])C([H])([H])C([H])([H])C([H])([H])C([H])([H])C([H])([H])[H])C([H])([H])C2([H])[H])c1[H]


 22 23  0  0  0  0  0  0  0  0999 V2000
   53.3104   -4.2547   -8.5791 N   0  0  0  0  0  0  0  0  0  0  0  0
   53.0268   -2.8466   -8.5256 C   0  0  0  0  0  0  0  0  0  0  0  0
   51.6262   -2.7091   -7.9835 C   0  0  0  0  0  0  0  0  0  0  0  0
   51.2689   -4.0926   -7.5242 C   0  0  0  0  0  0  0  0  0  0  0  0
   52.5587   -4.8204   -7.4486 C   0  0  0  0  0  0  0  0  0  0  0  0
   50.5397   -4.0734   -6.2252 C   0  0  0  0  0  0  0  0  0  0  0  0
   50.8925   -4.9966   -5.2654 C   0  0  0  0  0  0  0  0  0  0  0  0
   50.2427   -5.0191   -4.0267 C   0  0  0  0  0  0  0  0  0  0  0  0
   49.2446   -4.1002   -3.7882 C   0  0  0  0  0  0  0  0  0  0  0  0
   48.9117   -3.1925   -4.7580 C   0  0  0  0  0  0  0  0  0  0  0  0
   47.9052   -2.2781   -4.4962 O   0  0  0  0  0  0  0  0  0  0  0  0
   49.5493   -3.1557   -5.9994 C   0  0  0  0  0  0  0  0  0  0  0  0
   47.4128   -2.2684   -3.6074 H   0  0  0  0  0  0  0  0  0  0  0  0
   54.6908   -4.5964   -8.4835 C   0  0  0  0  0  0  0  0  0  0  0  0
   55.2067   -4.7606   -7.0897 C   0  0  0  0  0  0  0  0  0  0  0  0
   55.3343   -6.1745   -6.6444 C   0  0  0  0  0  0  0  0  0  0  0  0
   54.7466   -6.4959   -5.3109 C   0  0  0  0  0  0  0  0  0  0  0  0
   55.4825   -7.6856   -4.6437 C   0  0  0  0  0  0  0  0  0  0  0  0
   55.8574   -7.3494   -3.2534 C   0  0  0  0  0  0  0  0  0  0  0  0
   57.2643   -7.1180   -2.9100 C   0  0  0  0  0  0  0  0  0  0  0  0
   59.4944   -8.1123   -3.2688 C   0  0  0  0  0  0  0  0  0  0  0  0
   58.3386   -7.4133   -3.8912 C   0  0  0  0  0  0  0  0  0  0  0  0
 21 22  1  0  0  0
 22 20  1  0  0  0
 20 19  1  0  0  0
 19 18  1  0  0  0
 18 17  1  0  0  0
 17 16  1  0  0  0
 16 15  1  0  0  0
 15 14  1  0  0  0
 14  1  1  0  0  0
  1  2  1  0  0  0
  2  3  1  0  0  0
  3  4  1  0  0  0
  4  6  1  0  0  0
  6  7  2  0  0  0
  7  8  1  0  0  0
  8  9  2  0  0  0
  9 10  1  0  0  0
 10 11  1  0  0  0
 10 12  2  0  0  0
  4  5  1  0  0  0
  5  1  1  0  0  0
 12  6  1  0  0  0
 11 13  1  0  0  0
M  END
> <minimizedAffinity>
-6.77933

> <CNNscore>
0.2821004689

> <CNNaffinity>
6.0429830551

> <CNN_VS>
1.7047283649

> <CNNaffinity_variance>
0.0452086553

$$$$
[H]Oc1c([H])c([H])c([H])c(C2([H])C([H])([H])N(C([H])([H])C([H])([H])C([H])([H])C([H])([H])C([H])([H])C([H])([H])C([H])([H])C([H])([H])C([H])([H])[H])C([H])([H])C2([H])[H])c1[H]


 22 23  0  0  0  0  0  0  0  0999 V2000
   53.4482   -3.8075   -8.9406 N   0  0  0  0  0  0  0  0  0  0  0  0
   53.0770   -2.4257   -8.8030 C   0  0  0  0  0  0  0  0  0  0  0  0
   51.6868   -2.4087   -8.2189 C   0  0  0  0  0  0  0  0  0  0  0  0
   51.4318   -3.8350   -7.8270 C   0  0  0  0  0  0  0  0  0  0  0  0
   52.7671   -4.4800   -7.8240 C   0  0  0  0  0  0  0  0  0  0  0  0
   50.7407   -3.9320   -6.5107 C   0  0  0  0  0  0  0  0  0  0  0  0
   51.1136   -4.9420   -5.6510 C   0  0  0  0  0  0  0  0  0  0  0  0
   50.4997   -5.0754   -4.4011 C   0  0  0  0  0  0  0  0  0  0  0  0
   49.5164   -4.1772   -4.0494 C   0  0  0  0  0  0  0  0  0  0  0  0
   49.1630   -3.1819   -4.9210 C   0  0  0  0  0  0  0  0  0  0  0  0
   48.1719   -2.2903   -4.5463 O   0  0  0  0  0  0  0  0  0  0  0  0
   49.7647   -3.0339   -6.1720 C   0  0  0  0  0  0  0  0  0  0  0  0
   47.7054   -2.3602   -3.6462 H   0  0  0  0  0  0  0  0  0  0  0  0
   54.8498   -4.0630   -8.8989 C   0  0  0  0  0  0  0  0  0  0  0  0
   55.4817   -3.9052   -7.5529 C   0  0  0  0  0  0  0  0  0  0  0  0
   56.4315   -4.9910   -7.1890 C   0  0  0  0  0  0  0  0  0  0  0  0
   56.2212   -5.6240   -5.8541 C   0  0  0  0  0  0  0  0  0  0  0  0
   55.2807   -6.8517   -5.9554 C   0  0  0  0  0  0  0  0  0  0  0  0
   54.1864   -6.7495   -4.9661 C   0  0  0  0  0  0  0  0  0  0  0  0
   54.1978   -5.6727   -3.9706 C   0  0  0  0  0  0  0  0  0  0  0  0
   53.2446   -5.1290   -1.7600 C   0  0  0  0  0  0  0  0  0  0  0  0
   54.1928   -5.9868   -2.5196 C   0  0  0  0  0  0  0  0  0  0  0  0
 21 22  1  0  0  0
 22 20  1  0  0  0
 20 19  1  0  0  0
 19 18  1  0  0  0
 18 17  1  0  0  0
 17 16  1  0  0  0
 16 15  1  0  0  0
 15 14  1  0  0  0
 14  1  1  0  0  0
  1  2  1  0  0  0
  2  3  1  0  0  0
  3  4  1  0  0  0
  4  6  1  0  0  0
  6  7  2  0  0  0
  7  8  1  0  0  0
  8  9  2  0  0  0
  9 10  1  0  0  0
 10 11  1  0  0  0
 10 12  2  0  0  0
  4  5  1  0  0  0
  5  1  1  0  0  0
 12  6  1  0  0  0
 11 13  1  0  0  0
M  END
> <minimizedAffinity>
-7.52661

> <CNNscore>
0.2724012136

> <CNNaffinity>
6.2749524117

> <CNN_VS>
1.7093046904

> <CNNaffinity_variance>
0.0648488551

$$$$
[H]Oc1c([H])c([H])c([H])c(C2([H])C([H])([H])N(C([H])([H])C([H])([H])C([H])([H])C([H])([H])C([H])([H])C([H])([H])C([H])([H])C([H])([H])C([H])([H])[H])C([H])([H])C2([H])[H])c1[H]


 22 23  0  0  0  0  0  0  0  0999 V2000
   55.3985   -4.5205   -8.4099 N   0  0  0  0  0  0  0  0  0  0  0  0
   54.9220   -3.5206   -9.3261 C   0  0  0  0  0  0  0  0  0  0  0  0
   53.4167   -3.6106   -9.3181 C   0  0  0  0  0  0  0  0  0  0  0  0
   53.1067   -4.5359   -8.1776 C   0  0  0  0  0  0  0  0  0  0  0  0
   54.3538   -4.5952   -7.3775 C   0  0  0  0  0  0  0  0  0  0  0  0
   51.9349   -4.0661   -7.3867 C   0  0  0  0  0  0  0  0  0  0  0  0
   51.3101   -2.9013   -7.7755 C   0  0  0  0  0  0  0  0  0  0  0  0
   50.2027   -2.4182   -7.0703 C   0  0  0  0  0  0  0  0  0  0  0  0
   49.7516   -3.1307   -5.9812 C   0  0  0  0  0  0  0  0  0  0  0  0
   50.3893   -4.2856   -5.6141 C   0  0  0  0  0  0  0  0  0  0  0  0
   49.9184   -4.9854   -4.5159 O   0  0  0  0  0  0  0  0  0  0  0  0
   51.4955   -4.7822   -6.3059 C   0  0  0  0  0  0  0  0  0  0  0  0
   49.1172   -4.6611   -3.9815 H   0  0  0  0  0  0  0  0  0  0  0  0
   56.6662   -4.2437   -7.8202 C   0  0  0  0  0  0  0  0  0  0  0  0
   57.7311   -5.2536   -8.1065 C   0  0  0  0  0  0  0  0  0  0  0  0
   58.0190   -5.4496   -9.5530 C   0  0  0  0  0  0  0  0  0  0  0  0
   59.4447   -5.7124   -9.9065 C   0  0  0  0  0  0  0  0  0  0  0  0
   60.2475   -6.2069   -8.6764 C   0  0  0  0  0  0  0  0  0  0  0  0
   61.6938   -6.2437   -8.9819 C   0  0  0  0  0  0  0  0  0  0  0  0
   62.3399   -7.5180   -9.3130 C   0  0  0  0  0  0  0  0  0  0  0  0
   61.9343   -9.6600  -10.4698 C   0  0  0  0  0  0  0  0  0  0  0  0
   61.5557   -8.7784   -9.3334 C   0  0  0  0  0  0  0  0  0  0  0  0
 21 22  1  0  0  0
 22 20  1  0  0  0
 20 19  1  0  0  0
 19 18  1  0  0  0
 18 17  1  0  0  0
 17 16  1  0  0  0
 16 15  1  0  0  0
 15 14  1  0  0  0
 14  1  1  0  0  0
  1  2  1  0  0  0
  2  3  1  0  0  0
  3  4  1  0  0  0
  4  6  1  0  0  0
  6  7  2  0  0  0
  7  8  1  0  0  0
  8  9  2  0  0  0
  9 10  1  0  0  0
 10 11  1  0  0  0
 10 12  2  0  0  0
  4  5  1  0  0  0
  5  1  1  0  0  0
 12  6  1  0  0  0
 11 13  1  0  0  0
M  END
> <minimizedAffinity>
-7.20797

> <CNNscore>
0.2664512992

> <CNNaffinity>
5.4313006401

> <CNN_VS>
1.4471770525

> <CNNaffinity_variance>
0.0167681053

$$$$
[H]Oc1c([H])c([H])c([H])c(C2([H])C([H])([H])N(C([H])([H])C([H])([H])C([H])([H])C([H])([H])C([H])([H])C([H])([H])C([H])([H])C([H])([H])C([H])([H])[H])C([H])([H])C2([H])[H])c1[H]


 22 23  0  0  0  0  0  0  0  0999 V2000
   52.5656   -3.5759   -8.8381 N   0  0  0  0  0  0  0  0  0  0  0  0
   52.0691   -2.2989   -8.4033 C   0  0  0  0  0  0  0  0  0  0  0  0
   50.8956   -2.5780   -7.4982 C   0  0  0  0  0  0  0  0  0  0  0  0
   50.9416   -4.0621   -7.2785 C   0  0  0  0  0  0  0  0  0  0  0  0
   52.3009   -4.4744   -7.7044 C   0  0  0  0  0  0  0  0  0  0  0  0
   50.6460   -4.4214   -5.8632 C   0  0  0  0  0  0  0  0  0  0  0  0
   49.6641   -3.7161   -5.2025 C   0  0  0  0  0  0  0  0  0  0  0  0
   49.3440   -4.0159   -3.8741 C   0  0  0  0  0  0  0  0  0  0  0  0
   50.0305   -5.0293   -3.2424 C   0  0  0  0  0  0  0  0  0  0  0  0
   51.0024   -5.7159   -3.9199 C   0  0  0  0  0  0  0  0  0  0  0  0
   51.6796   -6.7307   -3.2648 O   0  0  0  0  0  0  0  0  0  0  0  0
   51.3349   -5.4302   -5.2453 C   0  0  0  0  0  0  0  0  0  0  0  0
   51.4722   -6.9727   -2.2999 H   0  0  0  0  0  0  0  0  0  0  0  0
   53.9482   -3.6000   -9.1837 C   0  0  0  0  0  0  0  0  0  0  0  0
   54.8475   -2.8591   -8.2465 C   0  0  0  0  0  0  0  0  0  0  0  0
   55.9920   -3.6587   -7.7324 C   0  0  0  0  0  0  0  0  0  0  0  0
   55.8136   -5.1402   -7.7463 C   0  0  0  0  0  0  0  0  0  0  0  0
   56.1947   -5.7656   -6.3803 C   0  0  0  0  0  0  0  0  0  0  0  0
   54.9831   -6.0298   -5.5749 C   0  0  0  0  0  0  0  0  0  0  0  0
   54.9296   -5.6055   -4.1721 C   0  0  0  0  0  0  0  0  0  0  0  0
   55.1922   -7.9881   -3.5846 C   0  0  0  0  0  0  0  0  0  0  0  0
   55.1146   -6.5919   -3.0781 C   0  0  0  0  0  0  0  0  0  0  0  0
 21 22  1  0  0  0
 22 20  1  0  0  0
 20 19  1  0  0  0
 19 18  1  0  0  0
 18 17  1  0  0  0
 17 16  1  0  0  0
 16 15  1  0  0  0
 15 14  1  0  0  0
 14  1  1  0  0  0
  1  2  1  0  0  0
  2  3  1  0  0  0
  3  4  1  0  0  0
  4  6  1  0  0  0
  6  7  2  0  0  0
  7  8  1  0  0  0
  8  9  2  0  0  0
  9 10  1  0  0  0
 10 11  1  0  0  0
 10 12  2  0  0  0
  4  5  1  0  0  0
  5  1  1  0  0  0
 12  6  1  0  0  0
 11 13  1  0  0  0
M  END
> <minimizedAffinity>
-6.90261

> <CNNscore>
0.2592500746

> <CNNaffinity>
6.0924520493

> <CNN_VS>
1.5794686079

> <CNNaffinity_variance>
0.0677479506

$$$$
[H]OC(=O)/C([H])=C(\[H])c1c([H])c([H])c(Oc2c(-c3c([H])c([H])c(OC(F)(F)F)c([H])c3C([H])([H])[H])c(=O)oc3c([H])c(OC([H])([H])C([H])([H])[H])c([H])c([H])c23)c([H])c1[H]


 39 42  0  0  0  0  0  0  0  0999 V2000
   52.0122   -4.4898   -6.3692 C   0  0  0  0  0  0  0  0  0  0  0  0
   53.2040   -4.9262   -5.8442 C   0  0  0  0  0  0  0  0  0  0  0  0
   54.3204   -4.9205   -6.6514 C   0  0  0  0  0  0  0  0  0  0  0  0
   54.2772   -4.4926   -7.9634 C   0  0  0  0  0  0  0  0  0  0  0  0
   55.4119   -4.4802   -8.7926 C   0  0  0  0  0  0  0  0  0  0  0  0
   55.2049   -4.0190  -10.0765 C   0  0  0  0  0  0  0  0  0  0  0  0
   53.9686   -3.5870  -10.5525 C   0  0  0  0  0  0  0  0  0  0  0  0
   53.8322   -3.1712  -11.7441 O   0  0  0  0  0  0  0  0  0  0  0  0
   52.9578   -3.6231   -9.7379 O   0  0  0  0  0  0  0  0  0  0  0  0
   53.0898   -4.0539   -8.4948 C   0  0  0  0  0  0  0  0  0  0  0  0
   51.9664   -4.0628   -7.6738 C   0  0  0  0  0  0  0  0  0  0  0  0
   56.2961   -3.9829  -11.0279 C   0  0  0  0  0  0  0  0  0  0  0  0
   57.3602   -3.1636  -10.7935 C   0  0  0  0  0  0  0  0  0  0  0  0
   58.4117   -3.1079  -11.6728 C   0  0  0  0  0  0  0  0  0  0  0  0
   58.3852   -3.8902  -12.8015 C   0  0  0  0  0  0  0  0  0  0  0  0
   57.3062   -4.7220  -13.0407 C   0  0  0  0  0  0  0  0  0  0  0  0
   56.2651   -4.7644  -12.1514 C   0  0  0  0  0  0  0  0  0  0  0  0
   55.1405   -5.6790  -12.4778 C   0  0  0  0  0  0  0  0  0  0  0  0
   59.4582   -3.8334  -13.6987 O   0  0  0  0  0  0  0  0  0  0  0  0
   60.7959   -3.7020  -13.2303 C   0  0  0  0  0  0  0  0  0  0  0  0
   60.9707   -2.4134  -12.7899 F   0  0  0  0  0  0  0  0  0  0  0  0
   61.0091   -4.5923  -12.1942 F   0  0  0  0  0  0  0  0  0  0  0  0
   61.7151   -4.0017  -14.2246 F   0  0  0  0  0  0  0  0  0  0  0  0
   50.8885   -4.4904   -5.5740 O   0  0  0  0  0  0  0  0  0  0  0  0
   51.0114   -6.4572   -4.2157 C   0  0  0  0  0  0  0  0  0  0  0  0
   50.1931   -5.6677   -5.2118 C   0  0  0  0  0  0  0  0  0  0  0  0
   56.5741   -4.9105   -8.2725 O   0  0  0  0  0  0  0  0  0  0  0  0
   57.7744   -5.2832   -8.7547 C   0  0  0  0  0  0  0  0  0  0  0  0
   58.9699   -4.6484   -8.5445 C   0  0  0  0  0  0  0  0  0  0  0  0
   60.1827   -5.0839   -9.0775 C   0  0  0  0  0  0  0  0  0  0  0  0
   60.2268   -6.2241   -9.8738 C   0  0  0  0  0  0  0  0  0  0  0  0
   59.0399   -6.8804  -10.1002 C   0  0  0  0  0  0  0  0  0  0  0  0
   57.8562   -6.4317   -9.5637 C   0  0  0  0  0  0  0  0  0  0  0  0
   61.5011   -6.6591  -10.4185 C   0  0  0  0  0  0  0  0  0  0  0  0
   61.6525   -7.6983  -11.2140 C   0  0  0  0  0  0  0  0  0  0  0  0
   63.0042   -8.0366  -11.7008 C   0  0  0  0  0  0  0  0  0  0  0  0
   63.8735   -8.5203  -10.9435 O   0  0  0  0  0  0  0  0  0  0  0  0
   63.3427   -7.8234  -13.0216 O   0  0  0  0  0  0  0  0  0  0  0  0
   63.5242   -8.5881  -13.6819 H   0  0  0  0  0  0  0  0  0  0  0  0
 25 26  1  0  0  0
 26 24  1  0  0  0
 24  1  1  0  0  0
  1  2  2  0  0  0
  2  3  1  0  0  0
  3  4  2  0  0  0
  4  5  1  0  0  0
  5 27  1  0  0  0
 27 28  1  0  0  0
 28 29  2  0  0  0
 29 30  1  0  0  0
 30 31  2  0  0  0
 31 34  1  0  0  0
 34 35  2  0  0  0
 35 36  1  0  0  0
 36 37  2  0  0  0
 36 38  1  0  0  0
 31 32  1  0  0  0
 32 33  2  0  0  0
  5  6  2  0  0  0
  6 12  1  0  0  0
 12 13  2  0  0  0
 13 14  1  0  0  0
 14 15  2  0  0  0
 15 19  1  0  0  0
 19 20  1  0  0  0
 20 21  1  0  0  0
 20 22  1  0  0  0
 20 23  1  0  0  0
 15 16  1  0  0  0
 16 17  2  0  0  0
 17 18  1  0  0  0
  6  7  1  0  0  0
  7  8  2  0  0  0
  7  9  1  0  0  0
  9 10  1  0  0  0
 10 11  2  0  0  0
 11  1  1  0  0  0
 10  4  1  0  0  0
 33 28  1  0  0  0
 17 12  1  0  0  0
 38 39  1  0  0  0
M  END
> <minimizedAffinity>
2.87448

> <CNNscore>
0.6353008747

> <CNNaffinity>
6.7192354202

> <CNN_VS>
4.2687363625

> <CNNaffinity_variance>
0.9549368024

$$$$
[H]OC(=O)/C([H])=C(\[H])c1c([H])c([H])c(Oc2c(-c3c([H])c([H])c(OC(F)(F)F)c([H])c3C([H])([H])[H])c(=O)oc3c([H])c(OC([H])([H])C([H])([H])[H])c([H])c([H])c23)c([H])c1[H]


 39 42  0  0  0  0  0  0  0  0999 V2000
   55.7350   -3.9452   -9.7898 C   0  0  0  0  0  0  0  0  0  0  0  0
   56.0491   -4.8298   -8.7873 C   0  0  0  0  0  0  0  0  0  0  0  0
   55.1138   -5.0709   -7.8050 C   0  0  0  0  0  0  0  0  0  0  0  0
   53.8787   -4.4538   -7.7981 C   0  0  0  0  0  0  0  0  0  0  0  0
   52.9174   -4.6967   -6.8020 C   0  0  0  0  0  0  0  0  0  0  0  0
   51.7310   -4.0058   -6.9398 C   0  0  0  0  0  0  0  0  0  0  0  0
   51.4693   -3.1197   -7.9829 C   0  0  0  0  0  0  0  0  0  0  0  0
   50.3595   -2.5089   -8.0634 O   0  0  0  0  0  0  0  0  0  0  0  0
   52.3980   -2.9373   -8.8723 O   0  0  0  0  0  0  0  0  0  0  0  0
   53.5571   -3.5692   -8.7976 C   0  0  0  0  0  0  0  0  0  0  0  0
   54.5069   -3.3304   -9.7861 C   0  0  0  0  0  0  0  0  0  0  0  0
   50.6754   -4.1581   -5.9602 C   0  0  0  0  0  0  0  0  0  0  0  0
   50.2838   -3.0780   -5.2264 C   0  0  0  0  0  0  0  0  0  0  0  0
   49.2849   -3.1873   -4.2925 C   0  0  0  0  0  0  0  0  0  0  0  0
   48.6760   -4.4034   -4.0997 C   0  0  0  0  0  0  0  0  0  0  0  0
   49.0723   -5.5003   -4.8436 C   0  0  0  0  0  0  0  0  0  0  0  0
   50.0717   -5.3723   -5.7716 C   0  0  0  0  0  0  0  0  0  0  0  0
   50.4448   -6.5948   -6.5291 C   0  0  0  0  0  0  0  0  0  0  0  0
   47.6567   -4.5148   -3.1469 O   0  0  0  0  0  0  0  0  0  0  0  0
   46.3436   -4.0400   -3.4229 C   0  0  0  0  0  0  0  0  0  0  0  0
   46.4384   -3.0360   -4.3545 F   0  0  0  0  0  0  0  0  0  0  0  0
   45.5748   -5.0773   -3.9175 F   0  0  0  0  0  0  0  0  0  0  0  0
   45.7181   -3.5767   -2.2751 F   0  0  0  0  0  0  0  0  0  0  0  0
   56.6605   -3.6944  -10.7777 O   0  0  0  0  0  0  0  0  0  0  0  0
   58.4588   -4.0717  -12.3113 C   0  0  0  0  0  0  0  0  0  0  0  0
   57.7173   -4.5791  -11.0957 C   0  0  0  0  0  0  0  0  0  0  0  0
   53.2327   -5.5620   -5.8233 O   0  0  0  0  0  0  0  0  0  0  0  0
   54.3181   -5.8231   -5.0709 C   0  0  0  0  0  0  0  0  0  0  0  0
   55.0420   -4.9165   -4.3425 C   0  0  0  0  0  0  0  0  0  0  0  0
   56.1635   -5.2506   -3.5841 C   0  0  0  0  0  0  0  0  0  0  0  0
   56.6074   -6.5686   -3.5361 C   0  0  0  0  0  0  0  0  0  0  0  0
   55.8977   -7.4987   -4.2586 C   0  0  0  0  0  0  0  0  0  0  0  0
   54.7947   -7.1451   -4.9992 C   0  0  0  0  0  0  0  0  0  0  0  0
   57.7779   -6.8934   -2.7398 C   0  0  0  0  0  0  0  0  0  0  0  0
   58.0271   -6.3917   -1.5474 C   0  0  0  0  0  0  0  0  0  0  0  0
   59.2549   -6.8035   -0.8395 C   0  0  0  0  0  0  0  0  0  0  0  0
   60.1382   -5.9780   -0.5210 O   0  0  0  0  0  0  0  0  0  0  0  0
   59.4576   -8.1280   -0.5089 O   0  0  0  0  0  0  0  0  0  0  0  0
   59.4575   -8.4680    0.4597 H   0  0  0  0  0  0  0  0  0  0  0  0
 25 26  1  0  0  0
 26 24  1  0  0  0
 24  1  1  0  0  0
  1  2  2  0  0  0
  2  3  1  0  0  0
  3  4  2  0  0  0
  4  5  1  0  0  0
  5 27  1  0  0  0
 27 28  1  0  0  0
 28 29  2  0  0  0
 29 30  1  0  0  0
 30 31  2  0  0  0
 31 34  1  0  0  0
 34 35  2  0  0  0
 35 36  1  0  0  0
 36 37  2  0  0  0
 36 38  1  0  0  0
 31 32  1  0  0  0
 32 33  2  0  0  0
  5  6  2  0  0  0
  6 12  1  0  0  0
 12 13  2  0  0  0
 13 14  1  0  0  0
 14 15  2  0  0  0
 15 19  1  0  0  0
 19 20  1  0  0  0
 20 21  1  0  0  0
 20 22  1  0  0  0
 20 23  1  0  0  0
 15 16  1  0  0  0
 16 17  2  0  0  0
 17 18  1  0  0  0
  6  7  1  0  0  0
  7  8  2  0  0  0
  7  9  1  0  0  0
  9 10  1  0  0  0
 10 11  2  0  0  0
 11  1  1  0  0  0
 10  4  1  0  0  0
 33 28  1  0  0  0
 17 12  1  0  0  0
 38 39  1  0  0  0
M  END
> <minimizedAffinity>
-7.85378

> <CNNscore>
0.6340098977

> <CNNaffinity>
7.6961202621

> <CNN_VS>
4.8794164658

> <CNNaffinity_variance>
0.5078408122

$$$$
[H]OC(=O)/C([H])=C(\[H])c1c([H])c([H])c(Oc2c(-c3c([H])c([H])c(OC(F)(F)F)c([H])c3C([H])([H])[H])c(=O)oc3c([H])c(OC([H])([H])C([H])([H])[H])c([H])c([H])c23)c([H])c1[H]


 39 42  0  0  0  0  0  0  0  0999 V2000
   58.3232   -5.2731   -9.5392 C   0  0  0  0  0  0  0  0  0  0  0  0
   58.2528   -5.4538   -8.1795 C   0  0  0  0  0  0  0  0  0  0  0  0
   57.0544   -5.2125   -7.5443 C   0  0  0  0  0  0  0  0  0  0  0  0
   55.9298   -4.7968   -8.2290 C   0  0  0  0  0  0  0  0  0  0  0  0
   54.7025   -4.5518   -7.5895 C   0  0  0  0  0  0  0  0  0  0  0  0
   53.6728   -4.1473   -8.4142 C   0  0  0  0  0  0  0  0  0  0  0  0
   53.8051   -3.9824   -9.7915 C   0  0  0  0  0  0  0  0  0  0  0  0
   52.8247   -3.6079  -10.5055 O   0  0  0  0  0  0  0  0  0  0  0  0
   54.9649   -4.2241  -10.3235 O   0  0  0  0  0  0  0  0  0  0  0  0
   55.9921   -4.6151   -9.5884 C   0  0  0  0  0  0  0  0  0  0  0  0
   57.2059   -4.8605  -10.2230 C   0  0  0  0  0  0  0  0  0  0  0  0
   52.3684   -3.8431   -7.8637 C   0  0  0  0  0  0  0  0  0  0  0  0
   51.9358   -2.5504   -7.8451 C   0  0  0  0  0  0  0  0  0  0  0  0
   50.7042   -2.2284   -7.3337 C   0  0  0  0  0  0  0  0  0  0  0  0
   49.9023   -3.2262   -6.8356 C   0  0  0  0  0  0  0  0  0  0  0  0
   50.3399   -4.5383   -6.8537 C   0  0  0  0  0  0  0  0  0  0  0  0
   51.5728   -4.8410   -7.3683 C   0  0  0  0  0  0  0  0  0  0  0  0
   51.9749   -6.2713   -7.3504 C   0  0  0  0  0  0  0  0  0  0  0  0
   48.6456   -2.8976   -6.3138 O   0  0  0  0  0  0  0  0  0  0  0  0
   48.4628   -2.7055   -4.9154 C   0  0  0  0  0  0  0  0  0  0  0  0
   48.9317   -1.4569   -4.5898 F   0  0  0  0  0  0  0  0  0  0  0  0
   47.1178   -2.8034   -4.6105 F   0  0  0  0  0  0  0  0  0  0  0  0
   49.1226   -3.6770   -4.1776 F   0  0  0  0  0  0  0  0  0  0  0  0
   59.5146   -5.5102  -10.1868 O   0  0  0  0  0  0  0  0  0  0  0  0
   60.5548   -7.6210   -9.7502 C   0  0  0  0  0  0  0  0  0  0  0  0
   60.6284   -6.1224   -9.5661 C   0  0  0  0  0  0  0  0  0  0  0  0
   54.6419   -4.7290   -6.2587 O   0  0  0  0  0  0  0  0  0  0  0  0
   55.0676   -5.6584   -5.3828 C   0  0  0  0  0  0  0  0  0  0  0  0
   54.8242   -7.0051   -5.4412 C   0  0  0  0  0  0  0  0  0  0  0  0
   55.2915   -7.9187   -4.4968 C   0  0  0  0  0  0  0  0  0  0  0  0
   56.0525   -7.4803   -3.4174 C   0  0  0  0  0  0  0  0  0  0  0  0
   56.3114   -6.1324   -3.3356 C   0  0  0  0  0  0  0  0  0  0  0  0
   55.8397   -5.2508   -4.2793 C   0  0  0  0  0  0  0  0  0  0  0  0
   56.5284   -8.4496   -2.4459 C   0  0  0  0  0  0  0  0  0  0  0  0
   57.7983   -8.7362   -2.2441 C   0  0  0  0  0  0  0  0  0  0  0  0
   58.1520   -9.7429   -1.2244 C   0  0  0  0  0  0  0  0  0  0  0  0
   57.8075   -9.6169   -0.0292 O   0  0  0  0  0  0  0  0  0  0  0  0
   58.8812  -10.8616   -1.5732 O   0  0  0  0  0  0  0  0  0  0  0  0
   58.4880  -11.8098   -1.5634 H   0  0  0  0  0  0  0  0  0  0  0  0
 25 26  1  0  0  0
 26 24  1  0  0  0
 24  1  1  0  0  0
  1  2  2  0  0  0
  2  3  1  0  0  0
  3  4  2  0  0  0
  4  5  1  0  0  0
  5 27  1  0  0  0
 27 28  1  0  0  0
 28 29  2  0  0  0
 29 30  1  0  0  0
 30 31  2  0  0  0
 31 34  1  0  0  0
 34 35  2  0  0  0
 35 36  1  0  0  0
 36 37  2  0  0  0
 36 38  1  0  0  0
 31 32  1  0  0  0
 32 33  2  0  0  0
  5  6  2  0  0  0
  6 12  1  0  0  0
 12 13  2  0  0  0
 13 14  1  0  0  0
 14 15  2  0  0  0
 15 19  1  0  0  0
 19 20  1  0  0  0
 20 21  1  0  0  0
 20 22  1  0  0  0
 20 23  1  0  0  0
 15 16  1  0  0  0
 16 17  2  0  0  0
 17 18  1  0  0  0
  6  7  1  0  0  0
  7  8  2  0  0  0
  7  9  1  0  0  0
  9 10  1  0  0  0
 10 11  2  0  0  0
 11  1  1  0  0  0
 10  4  1  0  0  0
 33 28  1  0  0  0
 17 12  1  0  0  0
 38 39  1  0  0  0
M  END
> <minimizedAffinity>
-10.17636

> <CNNscore>
0.6320872903

> <CNNaffinity>
7.4910840988

> <CNN_VS>
4.7350192070

> <CNNaffinity_variance>
0.1762723178

$$$$
[H]OC(=O)/C([H])=C(\[H])c1c([H])c([H])c(Oc2c(-c3c([H])c([H])c(OC(F)(F)F)c([H])c3C([H])([H])[H])c(=O)oc3c([H])c(OC([H])([H])C([H])([H])[H])c([H])c([H])c23)c([H])c1[H]


 39 42  0  0  0  0  0  0  0  0999 V2000
   50.4001   -3.7573   -6.5002 C   0  0  0  0  0  0  0  0  0  0  0  0
   50.8174   -4.9847   -6.0467 C   0  0  0  0  0  0  0  0  0  0  0  0
   52.0715   -5.4277   -6.4057 C   0  0  0  0  0  0  0  0  0  0  0  0
   52.9155   -4.6800   -7.2026 C   0  0  0  0  0  0  0  0  0  0  0  0
   54.1976   -5.1227   -7.5706 C   0  0  0  0  0  0  0  0  0  0  0  0
   54.9197   -4.2571   -8.3662 C   0  0  0  0  0  0  0  0  0  0  0  0
   54.4418   -3.0203   -8.7946 C   0  0  0  0  0  0  0  0  0  0  0  0
   55.1479   -2.2607   -9.5265 O   0  0  0  0  0  0  0  0  0  0  0  0
   53.2488   -2.6677   -8.4214 O   0  0  0  0  0  0  0  0  0  0  0  0
   52.5057   -3.4516   -7.6587 C   0  0  0  0  0  0  0  0  0  0  0  0
   51.2377   -3.0109   -7.2924 C   0  0  0  0  0  0  0  0  0  0  0  0
   56.2446   -4.6168   -8.8272 C   0  0  0  0  0  0  0  0  0  0  0  0
   57.2396   -4.8107   -7.9156 C   0  0  0  0  0  0  0  0  0  0  0  0
   58.5048   -5.1552   -8.3186 C   0  0  0  0  0  0  0  0  0  0  0  0
   58.7652   -5.3048   -9.6590 C   0  0  0  0  0  0  0  0  0  0  0  0
   57.7567   -5.1083  -10.5850 C   0  0  0  0  0  0  0  0  0  0  0  0
   56.4992   -4.7646  -10.1642 C   0  0  0  0  0  0  0  0  0  0  0  0
   55.4696   -4.5672  -11.2171 C   0  0  0  0  0  0  0  0  0  0  0  0
   60.0563   -5.6564  -10.0700 O   0  0  0  0  0  0  0  0  0  0  0  0
   60.6907   -6.8260   -9.5646 C   0  0  0  0  0  0  0  0  0  0  0  0
   59.8286   -7.8828   -9.7222 F   0  0  0  0  0  0  0  0  0  0  0  0
   61.8585   -7.0554  -10.2683 F   0  0  0  0  0  0  0  0  0  0  0  0
   61.0377   -6.6804   -8.2298 F   0  0  0  0  0  0  0  0  0  0  0  0
   49.1490   -3.3023   -6.1495 O   0  0  0  0  0  0  0  0  0  0  0  0
   47.4503   -2.8456   -4.5265 C   0  0  0  0  0  0  0  0  0  0  0  0
   48.8832   -2.6086   -4.9459 C   0  0  0  0  0  0  0  0  0  0  0  0
   54.5982   -6.3256   -7.1246 O   0  0  0  0  0  0  0  0  0  0  0  0
   55.1140   -6.8144   -5.9813 C   0  0  0  0  0  0  0  0  0  0  0  0
   54.5251   -7.7266   -5.1461 C   0  0  0  0  0  0  0  0  0  0  0  0
   55.1116   -8.1917   -3.9696 C   0  0  0  0  0  0  0  0  0  0  0  0
   56.3661   -7.7294   -3.5840 C   0  0  0  0  0  0  0  0  0  0  0  0
   56.9793   -6.8128   -4.4054 C   0  0  0  0  0  0  0  0  0  0  0  0
   56.3808   -6.3690   -5.5608 C   0  0  0  0  0  0  0  0  0  0  0  0
   56.9577   -8.2275   -2.3544 C   0  0  0  0  0  0  0  0  0  0  0  0
   58.1580   -8.7643   -2.2724 C   0  0  0  0  0  0  0  0  0  0  0  0
   58.6447   -9.2331   -0.9603 C   0  0  0  0  0  0  0  0  0  0  0  0
   59.4509   -8.5619   -0.2803 O   0  0  0  0  0  0  0  0  0  0  0  0
   58.2140  -10.4401   -0.4481 O   0  0  0  0  0  0  0  0  0  0  0  0
   57.6105  -10.5121    0.3792 H   0  0  0  0  0  0  0  0  0  0  0  0
 25 26  1  0  0  0
 26 24  1  0  0  0
 24  1  1  0  0  0
  1  2  2  0  0  0
  2  3  1  0  0  0
  3  4  2  0  0  0
  4  5  1  0  0  0
  5 27  1  0  0  0
 27 28  1  0  0  0
 28 29  2  0  0  0
 29 30  1  0  0  0
 30 31  2  0  0  0
 31 34  1  0  0  0
 34 35  2  0  0  0
 35 36  1  0  0  0
 36 37  2  0  0  0
 36 38  1  0  0  0
 31 32  1  0  0  0
 32 33  2  0  0  0
  5  6  2  0  0  0
  6 12  1  0  0  0
 12 13  2  0  0  0
 13 14  1  0  0  0
 14 15  2  0  0  0
 15 19  1  0  0  0
 19 20  1  0  0  0
 20 21  1  0  0  0
 20 22  1  0  0  0
 20 23  1  0  0  0
 15 16  1  0  0  0
 16 17  2  0  0  0
 17 18  1  0  0  0
  6  7  1  0  0  0
  7  8  2  0  0  0
  7  9  1  0  0  0
  9 10  1  0  0  0
 10 11  2  0  0  0
 11  1  1  0  0  0
 10  4  1  0  0  0
 33 28  1  0  0  0
 17 12  1  0  0  0
 38 39  1  0  0  0
M  END
> <minimizedAffinity>
-8.85215

> <CNNscore>
0.6005905271

> <CNNaffinity>
7.3750486374

> <CNN_VS>
4.4293842316

> <CNNaffinity_variance>
0.3733414114

$$$$
[H]OC(=O)/C([H])=C(\[H])c1c([H])c([H])c(Oc2c(-c3c([H])c([H])c(OC(F)(F)F)c([H])c3C([H])([H])[H])c(=O)oc3c([H])c(OC([H])([H])C([H])([H])[H])c([H])c([H])c23)c([H])c1[H]


 39 42  0  0  0  0  0  0  0  0999 V2000
   55.8425   -7.3229   -3.5228 C   0  0  0  0  0  0  0  0  0  0  0  0
   54.5663   -7.1735   -4.0077 C   0  0  0  0  0  0  0  0  0  0  0  0
   54.3983   -6.6341   -5.2642 C   0  0  0  0  0  0  0  0  0  0  0  0
   55.4672   -6.2416   -6.0450 C   0  0  0  0  0  0  0  0  0  0  0  0
   55.3049   -5.6939   -7.3291 C   0  0  0  0  0  0  0  0  0  0  0  0
   56.4721   -5.3572   -7.9836 C   0  0  0  0  0  0  0  0  0  0  0  0
   57.7423   -5.5343   -7.4387 C   0  0  0  0  0  0  0  0  0  0  0  0
   58.7854   -5.2075   -8.0840 O   0  0  0  0  0  0  0  0  0  0  0  0
   57.8265   -6.0450   -6.2476 O   0  0  0  0  0  0  0  0  0  0  0  0
   56.7459   -6.3890   -5.5676 C   0  0  0  0  0  0  0  0  0  0  0  0
   56.9078   -6.9342   -4.2976 C   0  0  0  0  0  0  0  0  0  0  0  0
   56.4278   -4.7626   -9.3033 C   0  0  0  0  0  0  0  0  0  0  0  0
   57.0359   -5.3997  -10.3440 C   0  0  0  0  0  0  0  0  0  0  0  0
   57.0099   -4.8653  -11.6072 C   0  0  0  0  0  0  0  0  0  0  0  0
   56.3613   -3.6731  -11.8187 C   0  0  0  0  0  0  0  0  0  0  0  0
   55.7439   -3.0255  -10.7637 C   0  0  0  0  0  0  0  0  0  0  0  0
   55.7802   -3.5742   -9.5091 C   0  0  0  0  0  0  0  0  0  0  0  0
   55.0978   -2.8192   -8.4265 C   0  0  0  0  0  0  0  0  0  0  0  0
   56.3348   -3.1279  -13.1077 O   0  0  0  0  0  0  0  0  0  0  0  0
   56.3127   -3.9686  -14.2561 C   0  0  0  0  0  0  0  0  0  0  0  0
   55.5490   -3.3575  -15.2195 F   0  0  0  0  0  0  0  0  0  0  0  0
   57.6035   -4.1509  -14.7166 F   0  0  0  0  0  0  0  0  0  0  0  0
   55.8021   -5.2233  -13.9586 F   0  0  0  0  0  0  0  0  0  0  0  0
   56.0251   -7.8602   -2.2686 O   0  0  0  0  0  0  0  0  0  0  0  0
   55.7482   -6.0377   -0.7420 C   0  0  0  0  0  0  0  0  0  0  0  0
   55.3079   -7.4316   -1.1273 C   0  0  0  0  0  0  0  0  0  0  0  0
   54.0530   -5.5489   -7.7960 O   0  0  0  0  0  0  0  0  0  0  0  0
   52.8754   -5.1244   -7.3007 C   0  0  0  0  0  0  0  0  0  0  0  0
   52.0002   -5.8547   -6.5410 C   0  0  0  0  0  0  0  0  0  0  0  0
   50.7895   -5.3570   -6.0601 C   0  0  0  0  0  0  0  0  0  0  0  0
   50.4096   -4.0488   -6.3441 C   0  0  0  0  0  0  0  0  0  0  0  0
   51.2710   -3.2940   -7.1050 C   0  0  0  0  0  0  0  0  0  0  0  0
   52.4596   -3.8070   -7.5681 C   0  0  0  0  0  0  0  0  0  0  0  0
   49.1442   -3.5517   -5.8330 C   0  0  0  0  0  0  0  0  0  0  0  0
   48.7880   -3.5930   -4.5652 C   0  0  0  0  0  0  0  0  0  0  0  0
   47.4714   -3.0532   -4.1733 C   0  0  0  0  0  0  0  0  0  0  0  0
   47.1323   -1.8821   -4.4503 O   0  0  0  0  0  0  0  0  0  0  0  0
   46.5730   -3.8409   -3.4827 O   0  0  0  0  0  0  0  0  0  0  0  0
   45.6900   -4.1694   -3.8903 H   0  0  0  0  0  0  0  0  0  0  0  0
 25 26  1  0  0  0
 26 24  1  0  0  0
 24  1  1  0  0  0
  1  2  2  0  0  0
  2  3  1  0  0  0
  3  4  2  0  0  0
  4  5  1  0  0  0
  5 27  1  0  0  0
 27 28  1  0  0  0
 28 29  2  0  0  0
 29 30  1  0  0  0
 30 31  2  0  0  0
 31 34  1  0  0  0
 34 35  2  0  0  0
 35 36  1  0  0  0
 36 37  2  0  0  0
 36 38  1  0  0  0
 31 32  1  0  0  0
 32 33  2  0  0  0
  5  6  2  0  0  0
  6 12  1  0  0  0
 12 13  2  0  0  0
 13 14  1  0  0  0
 14 15  2  0  0  0
 15 19  1  0  0  0
 19 20  1  0  0  0
 20 21  1  0  0  0
 20 22  1  0  0  0
 20 23  1  0  0  0
 15 16  1  0  0  0
 16 17  2  0  0  0
 17 18  1  0  0  0
  6  7  1  0  0  0
  7  8  2  0  0  0
  7  9  1  0  0  0
  9 10  1  0  0  0
 10 11  2  0  0  0
 11  1  1  0  0  0
 10  4  1  0  0  0
 33 28  1  0  0  0
 17 12  1  0  0  0
 38 39  1  0  0  0
M  END
> <minimizedAffinity>
-7.83357

> <CNNscore>
0.5593659878

> <CNNaffinity>
7.4428825378

> <CNN_VS>
4.1632952690

> <CNNaffinity_variance>
0.2606099844

$$$$
[H]OC(=O)/C([H])=C(\[H])c1c([H])c([H])c(Oc2c(-c3c([H])c([H])c(OC(F)(F)F)c([H])c3C([H])([H])[H])c(=O)oc3c([H])c(OC([H])([H])C([H])([H])[H])c([H])c([H])c23)c([H])c1[H]


 39 42  0  0  0  0  0  0  0  0999 V2000
   53.2084   -3.8791   -8.6613 C   0  0  0  0  0  0  0  0  0  0  0  0
   53.6855   -3.9675   -7.3764 C   0  0  0  0  0  0  0  0  0  0  0  0
   54.9979   -4.3405   -7.1856 C   0  0  0  0  0  0  0  0  0  0  0  0
   55.8420   -4.6265   -8.2401 C   0  0  0  0  0  0  0  0  0  0  0  0
   57.1829   -5.0043   -8.0545 C   0  0  0  0  0  0  0  0  0  0  0  0
   57.8962   -5.2511   -9.2096 C   0  0  0  0  0  0  0  0  0  0  0  0
   57.3560   -5.1431  -10.4895 C   0  0  0  0  0  0  0  0  0  0  0  0
   58.0567   -5.3815  -11.5207 O   0  0  0  0  0  0  0  0  0  0  0  0
   56.1105   -4.7903  -10.5953 O   0  0  0  0  0  0  0  0  0  0  0  0
   55.3725   -4.5392   -9.5273 C   0  0  0  0  0  0  0  0  0  0  0  0
   54.0459   -4.1622   -9.7123 C   0  0  0  0  0  0  0  0  0  0  0  0
   59.2807   -5.6704   -9.1413 C   0  0  0  0  0  0  0  0  0  0  0  0
   60.1454   -4.9917   -8.3350 C   0  0  0  0  0  0  0  0  0  0  0  0
   61.4625   -5.3648   -8.2450 C   0  0  0  0  0  0  0  0  0  0  0  0
   61.9085   -6.4365   -8.9793 C   0  0  0  0  0  0  0  0  0  0  0  0
   61.0322   -7.1261   -9.7979 C   0  0  0  0  0  0  0  0  0  0  0  0
   59.7205   -6.7391   -9.8752 C   0  0  0  0  0  0  0  0  0  0  0  0
   58.8408   -7.5258  -10.7780 C   0  0  0  0  0  0  0  0  0  0  0  0
   63.2524   -6.8171   -8.8873 O   0  0  0  0  0  0  0  0  0  0  0  0
   63.6753   -7.7783   -7.9264 C   0  0  0  0  0  0  0  0  0  0  0  0
   64.8461   -7.3344   -7.3633 F   0  0  0  0  0  0  0  0  0  0  0  0
   62.7015   -7.9149   -6.9544 F   0  0  0  0  0  0  0  0  0  0  0  0
   63.8587   -9.0267   -8.5019 F   0  0  0  0  0  0  0  0  0  0  0  0
   51.8988   -3.5079   -8.8666 O   0  0  0  0  0  0  0  0  0  0  0  0
   50.8027   -1.8799   -7.4968 C   0  0  0  0  0  0  0  0  0  0  0  0
   50.9624   -3.3483   -7.8185 C   0  0  0  0  0  0  0  0  0  0  0  0
   57.6420   -5.0905   -6.7944 O   0  0  0  0  0  0  0  0  0  0  0  0
   57.7465   -6.0572   -5.8634 C   0  0  0  0  0  0  0  0  0  0  0  0
   56.7976   -6.4034   -4.9381 C   0  0  0  0  0  0  0  0  0  0  0  0
   56.9688   -7.4153   -3.9939 C   0  0  0  0  0  0  0  0  0  0  0  0
   58.1558   -8.1404   -3.9542 C   0  0  0  0  0  0  0  0  0  0  0  0
   59.1249   -7.8127   -4.8730 C   0  0  0  0  0  0  0  0  0  0  0  0
   58.9329   -6.8106   -5.7944 C   0  0  0  0  0  0  0  0  0  0  0  0
   58.3122   -9.1897   -2.9621 C   0  0  0  0  0  0  0  0  0  0  0  0
   59.1554   -9.1358   -1.9513 C   0  0  0  0  0  0  0  0  0  0  0  0
   59.2186  -10.2710   -1.0101 C   0  0  0  0  0  0  0  0  0  0  0  0
   60.0061  -10.2767   -0.0391 O   0  0  0  0  0  0  0  0  0  0  0  0
   58.3978  -11.3668   -1.1840 O   0  0  0  0  0  0  0  0  0  0  0  0
   57.6350  -11.6011   -0.5383 H   0  0  0  0  0  0  0  0  0  0  0  0
 25 26  1  0  0  0
 26 24  1  0  0  0
 24  1  1  0  0  0
  1  2  2  0  0  0
  2  3  1  0  0  0
  3  4  2  0  0  0
  4  5  1  0  0  0
  5 27  1  0  0  0
 27 28  1  0  0  0
 28 29  2  0  0  0
 29 30  1  0  0  0
 30 31  2  0  0  0
 31 34  1  0  0  0
 34 35  2  0  0  0
 35 36  1  0  0  0
 36 37  2  0  0  0
 36 38  1  0  0  0
 31 32  1  0  0  0
 32 33  2  0  0  0
  5  6  2  0  0  0
  6 12  1  0  0  0
 12 13  2  0  0  0
 13 14  1  0  0  0
 14 15  2  0  0  0
 15 19  1  0  0  0
 19 20  1  0  0  0
 20 21  1  0  0  0
 20 22  1  0  0  0
 20 23  1  0  0  0
 15 16  1  0  0  0
 16 17  2  0  0  0
 17 18  1  0  0  0
  6  7  1  0  0  0
  7  8  2  0  0  0
  7  9  1  0  0  0
  9 10  1  0  0  0
 10 11  2  0  0  0
 11  1  1  0  0  0
 10  4  1  0  0  0
 33 28  1  0  0  0
 17 12  1  0  0  0
 38 39  1  0  0  0
M  END
> <minimizedAffinity>
2.78622

> <CNNscore>
0.5481913686

> <CNNaffinity>
6.5742888451

> <CNN_VS>
3.6039683819

> <CNNaffinity_variance>
0.7380071878

$$$$
[H]OC(=O)/C([H])=C(\[H])c1c([H])c([H])c(Oc2c(-c3c([H])c([H])c(OC(F)(F)F)c([H])c3C([H])([H])[H])c(=O)oc3c([H])c(OC([H])([H])C([H])([H])[H])c([H])c([H])c23)c([H])c1[H]


 39 42  0  0  0  0  0  0  0  0999 V2000
   49.1738   -3.7049   -4.9745 C   0  0  0  0  0  0  0  0  0  0  0  0
   49.8580   -4.8243   -4.5681 C   0  0  0  0  0  0  0  0  0  0  0  0
   51.0332   -5.1471   -5.2105 C   0  0  0  0  0  0  0  0  0  0  0  0
   51.5400   -4.3844   -6.2438 C   0  0  0  0  0  0  0  0  0  0  0  0
   52.7397   -4.7045   -6.9022 C   0  0  0  0  0  0  0  0  0  0  0  0
   53.1136   -3.8397   -7.9102 C   0  0  0  0  0  0  0  0  0  0  0  0
   52.3762   -2.7158   -8.2774 C   0  0  0  0  0  0  0  0  0  0  0  0
   52.7654   -1.9515   -9.2131 O   0  0  0  0  0  0  0  0  0  0  0  0
   51.2758   -2.4737   -7.6314 O   0  0  0  0  0  0  0  0  0  0  0  0
   50.8622   -3.2634   -6.6548 C   0  0  0  0  0  0  0  0  0  0  0  0
   49.6759   -2.9438   -6.0016 C   0  0  0  0  0  0  0  0  0  0  0  0
   54.3197   -4.0815   -8.6745 C   0  0  0  0  0  0  0  0  0  0  0  0
   54.2186   -4.5162   -9.9627 C   0  0  0  0  0  0  0  0  0  0  0  0
   55.3411   -4.7518  -10.7152 C   0  0  0  0  0  0  0  0  0  0  0  0
   56.5791   -4.5451  -10.1573 C   0  0  0  0  0  0  0  0  0  0  0  0
   56.6832   -4.1042   -8.8503 C   0  0  0  0  0  0  0  0  0  0  0  0
   55.5513   -3.8742   -8.1140 C   0  0  0  0  0  0  0  0  0  0  0  0
   55.7430   -3.4053   -6.7172 C   0  0  0  0  0  0  0  0  0  0  0  0
   57.7245   -4.7855  -10.9253 O   0  0  0  0  0  0  0  0  0  0  0  0
   57.9923   -4.0221  -12.0963 C   0  0  0  0  0  0  0  0  0  0  0  0
   57.5870   -2.7305  -11.8674 F   0  0  0  0  0  0  0  0  0  0  0  0
   59.3480   -4.0548  -12.3656 F   0  0  0  0  0  0  0  0  0  0  0  0
   57.3411   -4.5437  -13.2041 F   0  0  0  0  0  0  0  0  0  0  0  0
   47.9978   -3.3707   -4.3417 O   0  0  0  0  0  0  0  0  0  0  0  0
   45.9240   -3.8059   -3.2289 C   0  0  0  0  0  0  0  0  0  0  0  0
   47.3801   -4.1883   -3.3666 C   0  0  0  0  0  0  0  0  0  0  0  0
   53.4026   -5.8023   -6.5002 O   0  0  0  0  0  0  0  0  0  0  0  0
   54.3007   -6.0974   -5.5419 C   0  0  0  0  0  0  0  0  0  0  0  0
   54.2611   -5.6900   -4.2346 C   0  0  0  0  0  0  0  0  0  0  0  0
   55.2282   -6.0273   -3.2882 C   0  0  0  0  0  0  0  0  0  0  0  0
   56.3122   -6.8215   -3.6493 C   0  0  0  0  0  0  0  0  0  0  0  0
   56.3755   -7.2442   -4.9563 C   0  0  0  0  0  0  0  0  0  0  0  0
   55.4097   -6.8984   -5.8716 C   0  0  0  0  0  0  0  0  0  0  0  0
   57.3075   -7.1601   -2.6471 C   0  0  0  0  0  0  0  0  0  0  0  0
   58.6067   -7.0188   -2.8137 C   0  0  0  0  0  0  0  0  0  0  0  0
   59.5153   -7.4004   -1.7150 C   0  0  0  0  0  0  0  0  0  0  0  0
   59.5411   -8.5637   -1.2575 O   0  0  0  0  0  0  0  0  0  0  0  0
   60.3687   -6.4681   -1.1608 O   0  0  0  0  0  0  0  0  0  0  0  0
   61.3886   -6.5114   -1.2680 H   0  0  0  0  0  0  0  0  0  0  0  0
 25 26  1  0  0  0
 26 24  1  0  0  0
 24  1  1  0  0  0
  1  2  2  0  0  0
  2  3  1  0  0  0
  3  4  2  0  0  0
  4  5  1  0  0  0
  5 27  1  0  0  0
 27 28  1  0  0  0
 28 29  2  0  0  0
 29 30  1  0  0  0
 30 31  2  0  0  0
 31 34  1  0  0  0
 34 35  2  0  0  0
 35 36  1  0  0  0
 36 37  2  0  0  0
 36 38  1  0  0  0
 31 32  1  0  0  0
 32 33  2  0  0  0
  5  6  2  0  0  0
  6 12  1  0  0  0
 12 13  2  0  0  0
 13 14  1  0  0  0
 14 15  2  0  0  0
 15 19  1  0  0  0
 19 20  1  0  0  0
 20 21  1  0  0  0
 20 22  1  0  0  0
 20 23  1  0  0  0
 15 16  1  0  0  0
 16 17  2  0  0  0
 17 18  1  0  0  0
  6  7  1  0  0  0
  7  8  2  0  0  0
  7  9  1  0  0  0
  9 10  1  0  0  0
 10 11  2  0  0  0
 11  1  1  0  0  0
 10  4  1  0  0  0
 33 28  1  0  0  0
 17 12  1  0  0  0
 38 39  1  0  0  0
M  END
> <minimizedAffinity>
-9.20856

> <CNNscore>
0.5401933193

> <CNNaffinity>
7.6322736740

> <CNN_VS>
4.1229033470

> <CNNaffinity_variance>
0.3668398857

$$$$
[H]OC(=O)/C([H])=C(\[H])c1c([H])c([H])c(Oc2c(-c3c([H])c([H])c(OC(F)(F)F)c([H])c3C([H])([H])[H])c(=O)oc3c([H])c(OC([H])([H])C([H])([H])[H])c([H])c([H])c23)c([H])c1[H]


 39 42  0  0  0  0  0  0  0  0999 V2000
   54.0606   -7.2422   -5.7887 C   0  0  0  0  0  0  0  0  0  0  0  0
   55.3684   -7.6401   -5.9213 C   0  0  0  0  0  0  0  0  0  0  0  0
   56.0744   -7.2232   -7.0284 C   0  0  0  0  0  0  0  0  0  0  0  0
   55.5103   -6.4232   -8.0021 C   0  0  0  0  0  0  0  0  0  0  0  0
   56.2243   -5.9906   -9.1327 C   0  0  0  0  0  0  0  0  0  0  0  0
   55.5204   -5.1918  -10.0105 C   0  0  0  0  0  0  0  0  0  0  0  0
   54.1911   -4.8197   -9.8207 C   0  0  0  0  0  0  0  0  0  0  0  0
   53.5891   -4.0818  -10.6600 O   0  0  0  0  0  0  0  0  0  0  0  0
   53.5853   -5.2520   -8.7563 O   0  0  0  0  0  0  0  0  0  0  0  0
   54.2038   -6.0206   -7.8759 C   0  0  0  0  0  0  0  0  0  0  0  0
   53.4969   -6.4458   -6.7553 C   0  0  0  0  0  0  0  0  0  0  0  0
   56.1458   -4.7056  -11.2228 C   0  0  0  0  0  0  0  0  0  0  0  0
   55.6743   -5.1231  -12.4318 C   0  0  0  0  0  0  0  0  0  0  0  0
   56.2419   -4.6793  -13.5992 C   0  0  0  0  0  0  0  0  0  0  0  0
   57.2985   -3.8034  -13.5414 C   0  0  0  0  0  0  0  0  0  0  0  0
   57.7781   -3.3790  -12.3154 C   0  0  0  0  0  0  0  0  0  0  0  0
   57.1987   -3.8328  -11.1601 C   0  0  0  0  0  0  0  0  0  0  0  0
   57.7705   -3.3353   -9.8821 C   0  0  0  0  0  0  0  0  0  0  0  0
   57.8776   -3.3506  -14.7327 O   0  0  0  0  0  0  0  0  0  0  0  0
   57.1120   -3.2608  -15.9292 C   0  0  0  0  0  0  0  0  0  0  0  0
   57.6036   -2.2183  -16.6750 F   0  0  0  0  0  0  0  0  0  0  0  0
   57.2225   -4.4446  -16.6349 F   0  0  0  0  0  0  0  0  0  0  0  0
   55.7654   -3.0686  -15.6586 F   0  0  0  0  0  0  0  0  0  0  0  0
   53.3430   -7.6518   -4.6876 O   0  0  0  0  0  0  0  0  0  0  0  0
   54.4583   -7.4219   -2.5824 C   0  0  0  0  0  0  0  0  0  0  0  0
   53.3264   -6.9439   -3.4631 C   0  0  0  0  0  0  0  0  0  0  0  0
   57.5029   -6.3855   -9.2565 O   0  0  0  0  0  0  0  0  0  0  0  0
   58.5278   -6.6329   -8.4195 C   0  0  0  0  0  0  0  0  0  0  0  0
   58.5000   -6.5558   -7.0521 C   0  0  0  0  0  0  0  0  0  0  0  0
   59.6010   -6.8213   -6.2385 C   0  0  0  0  0  0  0  0  0  0  0  0
   60.8169   -7.1893   -6.8063 C   0  0  0  0  0  0  0  0  0  0  0  0
   60.8714   -7.2744   -8.1776 C   0  0  0  0  0  0  0  0  0  0  0  0
   59.7722   -7.0076   -8.9590 C   0  0  0  0  0  0  0  0  0  0  0  0
   61.9503   -7.4609   -5.9395 C   0  0  0  0  0  0  0  0  0  0  0  0
   61.9776   -7.1977   -4.6489 C   0  0  0  0  0  0  0  0  0  0  0  0
   63.1931   -7.5227   -3.8773 C   0  0  0  0  0  0  0  0  0  0  0  0
   63.5488   -8.7046   -3.6782 O   0  0  0  0  0  0  0  0  0  0  0  0
   63.9748   -6.5143   -3.3513 O   0  0  0  0  0  0  0  0  0  0  0  0
   64.9226   -6.3091   -3.6880 H   0  0  0  0  0  0  0  0  0  0  0  0
 25 26  1  0  0  0
 26 24  1  0  0  0
 24  1  1  0  0  0
  1  2  2  0  0  0
  2  3  1  0  0  0
  3  4  2  0  0  0
  4  5  1  0  0  0
  5 27  1  0  0  0
 27 28  1  0  0  0
 28 29  2  0  0  0
 29 30  1  0  0  0
 30 31  2  0  0  0
 31 34  1  0  0  0
 34 35  2  0  0  0
 35 36  1  0  0  0
 36 37  2  0  0  0
 36 38  1  0  0  0
 31 32  1  0  0  0
 32 33  2  0  0  0
  5  6  2  0  0  0
  6 12  1  0  0  0
 12 13  2  0  0  0
 13 14  1  0  0  0
 14 15  2  0  0  0
 15 19  1  0  0  0
 19 20  1  0  0  0
 20 21  1  0  0  0
 20 22  1  0  0  0
 20 23  1  0  0  0
 15 16  1  0  0  0
 16 17  2  0  0  0
 17 18  1  0  0  0
  6  7  1  0  0  0
  7  8  2  0  0  0
  7  9  1  0  0  0
  9 10  1  0  0  0
 10 11  2  0  0  0
 11  1  1  0  0  0
 10  4  1  0  0  0
 33 28  1  0  0  0
 17 12  1  0  0  0
 38 39  1  0  0  0
M  END
> <minimizedAffinity>
14.45805

> <CNNscore>
0.5364560485

> <CNNaffinity>
6.2515363693

> <CNN_VS>
3.3536744118

> <CNNaffinity_variance>
0.9848690033

$$$$
[H]OC(=O)/C([H])=C(\[H])c1c([H])c([H])c(Oc2c(-c3c([H])c([H])c(OC(F)(F)F)c([H])c3C([H])([H])[H])c(=O)oc3c([H])c(OC([H])([H])C([H])([H])[H])c([H])c([H])c23)c([H])c1[H]


 39 42  0  0  0  0  0  0  0  0999 V2000
   57.9989   -4.6715  -10.7165 C   0  0  0  0  0  0  0  0  0  0  0  0
   58.3168   -4.6392   -9.3808 C   0  0  0  0  0  0  0  0  0  0  0  0
   57.2955   -4.5215   -8.4636 C   0  0  0  0  0  0  0  0  0  0  0  0
   55.9712   -4.4354   -8.8446 C   0  0  0  0  0  0  0  0  0  0  0  0
   54.9231   -4.3188   -7.9155 C   0  0  0  0  0  0  0  0  0  0  0  0
   53.6552   -4.2488   -8.4555 C   0  0  0  0  0  0  0  0  0  0  0  0
   53.3947   -4.2881   -9.8238 C   0  0  0  0  0  0  0  0  0  0  0  0
   52.2079   -4.2203  -10.2688 O   0  0  0  0  0  0  0  0  0  0  0  0
   54.4058   -4.3964  -10.6317 O   0  0  0  0  0  0  0  0  0  0  0  0
   55.6457   -4.4683  -10.1779 C   0  0  0  0  0  0  0  0  0  0  0  0
   56.6824   -4.5869  -11.0984 C   0  0  0  0  0  0  0  0  0  0  0  0
   52.4988   -4.1034   -7.5959 C   0  0  0  0  0  0  0  0  0  0  0  0
   52.1659   -5.1165   -6.7466 C   0  0  0  0  0  0  0  0  0  0  0  0
   51.0786   -5.0096   -5.9169 C   0  0  0  0  0  0  0  0  0  0  0  0
   50.3204   -3.8646   -5.9478 C   0  0  0  0  0  0  0  0  0  0  0  0
   50.6570   -2.8359   -6.8091 C   0  0  0  0  0  0  0  0  0  0  0  0
   51.7462   -2.9604   -7.6304 C   0  0  0  0  0  0  0  0  0  0  0  0
   52.0429   -1.8156   -8.5299 C   0  0  0  0  0  0  0  0  0  0  0  0
   49.2111   -3.7556   -5.1011 O   0  0  0  0  0  0  0  0  0  0  0  0
   49.1976   -4.3938   -3.8289 C   0  0  0  0  0  0  0  0  0  0  0  0
   50.0571   -3.7156   -3.0005 F   0  0  0  0  0  0  0  0  0  0  0  0
   47.9152   -4.3623   -3.3130 F   0  0  0  0  0  0  0  0  0  0  0  0
   49.5690   -5.7266   -3.9241 F   0  0  0  0  0  0  0  0  0  0  0  0
   59.0094   -4.7883  -11.6441 O   0  0  0  0  0  0  0  0  0  0  0  0
   60.5651   -4.0046  -13.2854 C   0  0  0  0  0  0  0  0  0  0  0  0
   59.1541   -3.9184  -12.7500 C   0  0  0  0  0  0  0  0  0  0  0  0
   55.2420   -4.2859   -6.6104 O   0  0  0  0  0  0  0  0  0  0  0  0
   55.5392   -5.1924   -5.6606 C   0  0  0  0  0  0  0  0  0  0  0  0
   55.9133   -4.9275   -4.3698 C   0  0  0  0  0  0  0  0  0  0  0  0
   56.2133   -5.9148   -3.4317 C   0  0  0  0  0  0  0  0  0  0  0  0
   56.1411   -7.2589   -3.7846 C   0  0  0  0  0  0  0  0  0  0  0  0
   55.7676   -7.5520   -5.0750 C   0  0  0  0  0  0  0  0  0  0  0  0
   55.4766   -6.5608   -5.9823 C   0  0  0  0  0  0  0  0  0  0  0  0
   56.4582   -8.2701   -2.7913 C   0  0  0  0  0  0  0  0  0  0  0  0
   57.6820   -8.5959   -2.4281 C   0  0  0  0  0  0  0  0  0  0  0  0
   57.8706   -9.6428   -1.4050 C   0  0  0  0  0  0  0  0  0  0  0  0
   58.6872  -10.5763   -1.5627 O   0  0  0  0  0  0  0  0  0  0  0  0
   57.1392   -9.6136   -0.2351 O   0  0  0  0  0  0  0  0  0  0  0  0
   57.5608   -9.4295    0.6826 H   0  0  0  0  0  0  0  0  0  0  0  0
 25 26  1  0  0  0
 26 24  1  0  0  0
 24  1  1  0  0  0
  1  2  2  0  0  0
  2  3  1  0  0  0
  3  4  2  0  0  0
  4  5  1  0  0  0
  5 27  1  0  0  0
 27 28  1  0  0  0
 28 29  2  0  0  0
 29 30  1  0  0  0
 30 31  2  0  0  0
 31 34  1  0  0  0
 34 35  2  0  0  0
 35 36  1  0  0  0
 36 37  2  0  0  0
 36 38  1  0  0  0
 31 32  1  0  0  0
 32 33  2  0  0  0
  5  6  2  0  0  0
  6 12  1  0  0  0
 12 13  2  0  0  0
 13 14  1  0  0  0
 14 15  2  0  0  0
 15 19  1  0  0  0
 19 20  1  0  0  0
 20 21  1  0  0  0
 20 22  1  0  0  0
 20 23  1  0  0  0
 15 16  1  0  0  0
 16 17  2  0  0  0
 17 18  1  0  0  0
  6  7  1  0  0  0
  7  8  2  0  0  0
  7  9  1  0  0  0
  9 10  1  0  0  0
 10 11  2  0  0  0
 11  1  1  0  0  0
 10  4  1  0  0  0
 33 28  1  0  0  0
 17 12  1  0  0  0
 38 39  1  0  0  0
M  END
> <minimizedAffinity>
-8.32349

> <CNNscore>
0.5034913421

> <CNNaffinity>
7.2940549850

> <CNN_VS>
3.6724934578

> <CNNaffinity_variance>
0.1858710945

$$$$
[H]N=C(c1c([H])c([H])c([H])c(Oc2c([H])c([H])c(N([H])[H])c([H])c2C(=O)N([H])c2c([H])c([H])c(-c3c([H])c([H])c([H])c([H])c3S(=O)(=O)N([H])[H])c([H])c2[H])c1[H])N([H])[H]


 44 47  0  0  0  0  0  0  0  0999 V2000
   54.7956   -6.6768   -6.1513 C   0  0  0  0  0  0  0  0  0  0  0  0
   54.5242   -7.5363   -5.0565 C   0  0  0  0  0  0  0  0  0  0  0  0
   55.4526   -7.7044   -4.0647 C   0  0  0  0  0  0  0  0  0  0  0  0
   56.6395   -7.0229   -4.1658 C   0  0  0  0  0  0  0  0  0  0  0  0
   57.5899   -7.2232   -3.1348 N   0  0  0  0  0  0  0  0  0  0  0  0
   56.8982   -6.1869   -5.2223 C   0  0  0  0  0  0  0  0  0  0  0  0
   55.9384   -5.9885   -6.2704 C   0  0  0  0  0  0  0  0  0  0  0  0
   58.0785   -6.4380   -2.6941 H   0  0  0  0  0  0  0  0  0  0  0  0
   57.7717   -8.2007   -2.8554 H   0  0  0  0  0  0  0  0  0  0  0  0
   56.1925   -4.7855   -7.1088 C   0  0  0  0  0  0  0  0  0  0  0  0
   56.3222   -3.7386   -6.3465 O   0  0  0  0  0  0  0  0  0  0  0  0
   56.2975   -4.6651   -8.4160 N   0  0  0  0  0  0  0  0  0  0  0  0
   56.9073   -3.4291   -8.2240 H   0  0  0  0  0  0  0  0  0  0  0  0
   56.4075   -4.5389   -9.7852 C   0  0  0  0  0  0  0  0  0  0  0  0
   57.5128   -5.1200  -10.4499 C   0  0  0  0  0  0  0  0  0  0  0  0
   57.7177   -4.9544  -11.8007 C   0  0  0  0  0  0  0  0  0  0  0  0
   56.8530   -4.2141  -12.5659 C   0  0  0  0  0  0  0  0  0  0  0  0
   55.7702   -3.6431  -11.9492 C   0  0  0  0  0  0  0  0  0  0  0  0
   55.5541   -3.8027  -10.5910 C   0  0  0  0  0  0  0  0  0  0  0  0
   57.0638   -3.9762  -13.9758 C   0  0  0  0  0  0  0  0  0  0  0  0
   56.0686   -4.2157  -14.9046 C   0  0  0  0  0  0  0  0  0  0  0  0
   56.2696   -4.0281  -16.2483 C   0  0  0  0  0  0  0  0  0  0  0  0
   57.4995   -3.5882  -16.6868 C   0  0  0  0  0  0  0  0  0  0  0  0
   58.4967   -3.3446  -15.7825 C   0  0  0  0  0  0  0  0  0  0  0  0
   58.2859   -3.5356  -14.4210 C   0  0  0  0  0  0  0  0  0  0  0  0
   59.5762   -3.1785  -13.3490 S   0  0  0  0  0  0  0  0  0  0  0  0
   60.7382   -2.1684  -14.1883 N   0  0  0  0  0  0  0  0  0  0  0  0
   60.3634   -4.4438  -13.0517 O   0  0  0  0  0  0  0  0  0  0  0  0
   59.1674   -2.4753  -12.0871 O   0  0  0  0  0  0  0  0  0  0  0  0
   61.2599   -2.7166  -14.9043 H   0  0  0  0  0  0  0  0  0  0  0  0
   60.2384   -1.3987  -14.6634 H   0  0  0  0  0  0  0  0  0  0  0  0
   53.7749   -6.6074   -7.1290 O   0  0  0  0  0  0  0  0  0  0  0  0
   51.5660   -3.6917   -7.2664 C   0  0  0  0  0  0  0  0  0  0  0  0
   50.7375   -3.8937   -6.1823 C   0  0  0  0  0  0  0  0  0  0  0  0
   50.8627   -4.9886   -5.3644 C   0  0  0  0  0  0  0  0  0  0  0  0
   51.8807   -5.9034   -5.6818 C   0  0  0  0  0  0  0  0  0  0  0  0
   52.7172   -5.7593   -6.7211 C   0  0  0  0  0  0  0  0  0  0  0  0
   52.5475   -4.6084   -7.5413 C   0  0  0  0  0  0  0  0  0  0  0  0
   52.1625   -2.2486   -9.1174 N   0  0  0  0  0  0  0  0  0  0  0  0
   51.4235   -2.5068   -8.1217 C   0  0  0  0  0  0  0  0  0  0  0  0
   50.3985   -1.5771   -7.8033 N   0  0  0  0  0  0  0  0  0  0  0  0
   52.9424   -2.7718   -9.5110 H   0  0  0  0  0  0  0  0  0  0  0  0
   50.7296   -0.6265   -7.4958 H   0  0  0  0  0  0  0  0  0  0  0  0
   49.3877   -1.7356   -7.8413 H   0  0  0  0  0  0  0  0  0  0  0  0
 39 40  2  0  0  0
 40 41  1  0  0  0
 40 33  1  0  0  0
 33 34  2  0  0  0
 34 35  1  0  0  0
 35 36  2  0  0  0
 36 37  1  0  0  0
 37 32  1  0  0  0
 32  1  1  0  0  0
  1  2  2  0  0  0
  2  3  1  0  0  0
  3  4  2  0  0  0
  4  5  1  0  0  0
  4  6  1  0  0  0
  6  7  2  0  0  0
  7 10  1  0  0  0
 10 11  2  0  0  0
 10 12  1  0  0  0
 12 14  1  0  0  0
 14 15  2  0  0  0
 15 16  1  0  0  0
 16 17  2  0  0  0
 17 20  1  0  0  0
 20 21  2  0  0  0
 21 22  1  0  0  0
 22 23  2  0  0  0
 23 24  1  0  0  0
 24 25  2  0  0  0
 25 26  1  0  0  0
 26 27  1  0  0  0
 26 28  2  0  0  0
 26 29  2  0  0  0
 17 18  1  0  0  0
 18 19  2  0  0  0
 37 38  2  0  0  0
 38 33  1  0  0  0
  7  1  1  0  0  0
 19 14  1  0  0  0
 25 20  1  0  0  0
 39 42  1  0  0  0
 41 43  1  0  0  0
 41 44  1  0  0  0
  5  8  1  0  0  0
  5  9  1  0  0  0
 12 13  1  0  0  0
 27 30  1  0  0  0
 27 31  1  0  0  0
M  END
> <minimizedAffinity>
-9.59977

> <CNNscore>
0.6061323285

> <CNNaffinity>
7.0520234108

> <CNN_VS>
4.2744593620

> <CNNaffinity_variance>
0.0968811661

$$$$
[H]N=C(c1c([H])c([H])c([H])c(Oc2c([H])c([H])c(N([H])[H])c([H])c2C(=O)N([H])c2c([H])c([H])c(-c3c([H])c([H])c([H])c([H])c3S(=O)(=O)N([H])[H])c([H])c2[H])c1[H])N([H])[H]


 44 47  0  0  0  0  0  0  0  0999 V2000
   54.7178   -6.7089   -6.3619 C   0  0  0  0  0  0  0  0  0  0  0  0
   54.5585   -7.6267   -5.2927 C   0  0  0  0  0  0  0  0  0  0  0  0
   55.5674   -7.8116   -4.3861 C   0  0  0  0  0  0  0  0  0  0  0  0
   56.7230   -7.0888   -4.5464 C   0  0  0  0  0  0  0  0  0  0  0  0
   57.7579   -7.3071   -3.6040 N   0  0  0  0  0  0  0  0  0  0  0  0
   56.8733   -6.1967   -5.5775 C   0  0  0  0  0  0  0  0  0  0  0  0
   55.8278   -5.9800   -6.5362 C   0  0  0  0  0  0  0  0  0  0  0  0
   58.2580   -6.5282   -3.1649 H   0  0  0  0  0  0  0  0  0  0  0  0
   57.9885   -8.2903   -3.3881 H   0  0  0  0  0  0  0  0  0  0  0  0
   55.9807   -4.7316   -7.3319 C   0  0  0  0  0  0  0  0  0  0  0  0
   55.5380   -3.7175   -6.6468 O   0  0  0  0  0  0  0  0  0  0  0  0
   56.4722   -4.5461   -8.5395 N   0  0  0  0  0  0  0  0  0  0  0  0
   56.5934   -3.1905   -8.2503 H   0  0  0  0  0  0  0  0  0  0  0  0
   56.9870   -4.3518   -9.8044 C   0  0  0  0  0  0  0  0  0  0  0  0
   58.0508   -5.1684  -10.2545 C   0  0  0  0  0  0  0  0  0  0  0  0
   58.6584   -4.9645  -11.4725 C   0  0  0  0  0  0  0  0  0  0  0  0
   58.2557   -3.9542  -12.3081 C   0  0  0  0  0  0  0  0  0  0  0  0
   57.2235   -3.1500  -11.8998 C   0  0  0  0  0  0  0  0  0  0  0  0
   56.6050   -3.3455  -10.6767 C   0  0  0  0  0  0  0  0  0  0  0  0
   58.9033   -3.6783  -13.5703 C   0  0  0  0  0  0  0  0  0  0  0  0
   60.2494   -3.3725  -13.6391 C   0  0  0  0  0  0  0  0  0  0  0  0
   60.8660   -3.0734  -14.8271 C   0  0  0  0  0  0  0  0  0  0  0  0
   60.1227   -3.0772  -15.9873 C   0  0  0  0  0  0  0  0  0  0  0  0
   58.7891   -3.3786  -15.9397 C   0  0  0  0  0  0  0  0  0  0  0  0
   58.1702   -3.6824  -14.7317 C   0  0  0  0  0  0  0  0  0  0  0  0
   56.5019   -4.0797  -14.7597 S   0  0  0  0  0  0  0  0  0  0  0  0
   55.9570   -4.0906  -16.4263 N   0  0  0  0  0  0  0  0  0  0  0  0
   55.6944   -2.9540  -14.1352 O   0  0  0  0  0  0  0  0  0  0  0  0
   56.1625   -5.4069  -14.1456 O   0  0  0  0  0  0  0  0  0  0  0  0
   55.9068   -3.1227  -16.8084 H   0  0  0  0  0  0  0  0  0  0  0  0
   56.6235   -4.6356  -16.9979 H   0  0  0  0  0  0  0  0  0  0  0  0
   53.6208   -6.6261   -7.2520 O   0  0  0  0  0  0  0  0  0  0  0  0
   51.4405   -3.6864   -7.1854 C   0  0  0  0  0  0  0  0  0  0  0  0
   50.6953   -3.8934   -6.0434 C   0  0  0  0  0  0  0  0  0  0  0  0
   50.8706   -4.9997   -5.2503 C   0  0  0  0  0  0  0  0  0  0  0  0
   51.8511   -5.9209   -5.6556 C   0  0  0  0  0  0  0  0  0  0  0  0
   52.6070   -5.7724   -6.7542 C   0  0  0  0  0  0  0  0  0  0  0  0
   52.3877   -4.6096   -7.5455 C   0  0  0  0  0  0  0  0  0  0  0  0
   51.9640   -2.1841   -9.0111 N   0  0  0  0  0  0  0  0  0  0  0  0
   51.2462   -2.4895   -8.0134 C   0  0  0  0  0  0  0  0  0  0  0  0
   50.1925   -1.6041   -7.6640 N   0  0  0  0  0  0  0  0  0  0  0  0
   52.7574   -2.6706   -9.4244 H   0  0  0  0  0  0  0  0  0  0  0  0
   50.4931   -0.6490   -7.3396 H   0  0  0  0  0  0  0  0  0  0  0  0
   49.1876   -1.7978   -7.6945 H   0  0  0  0  0  0  0  0  0  0  0  0
 39 40  2  0  0  0
 40 41  1  0  0  0
 40 33  1  0  0  0
 33 34  2  0  0  0
 34 35  1  0  0  0
 35 36  2  0  0  0
 36 37  1  0  0  0
 37 32  1  0  0  0
 32  1  1  0  0  0
  1  2  2  0  0  0
  2  3  1  0  0  0
  3  4  2  0  0  0
  4  5  1  0  0  0
  4  6  1  0  0  0
  6  7  2  0  0  0
  7 10  1  0  0  0
 10 11  2  0  0  0
 10 12  1  0  0  0
 12 14  1  0  0  0
 14 15  2  0  0  0
 15 16  1  0  0  0
 16 17  2  0  0  0
 17 20  1  0  0  0
 20 21  2  0  0  0
 21 22  1  0  0  0
 22 23  2  0  0  0
 23 24  1  0  0  0
 24 25  2  0  0  0
 25 26  1  0  0  0
 26 27  1  0  0  0
 26 28  2  0  0  0
 26 29  2  0  0  0
 17 18  1  0  0  0
 18 19  2  0  0  0
 37 38  2  0  0  0
 38 33  1  0  0  0
  7  1  1  0  0  0
 19 14  1  0  0  0
 25 20  1  0  0  0
 39 42  1  0  0  0
 41 43  1  0  0  0
 41 44  1  0  0  0
  5  8  1  0  0  0
  5  9  1  0  0  0
 12 13  1  0  0  0
 27 30  1  0  0  0
 27 31  1  0  0  0
M  END
> <minimizedAffinity>
-9.61986

> <CNNscore>
0.4881724119

> <CNNaffinity>
6.9170417786

> <CNN_VS>
3.3767089844

> <CNNaffinity_variance>
0.1011221409

$$$$
[H]N=C(c1c([H])c([H])c([H])c(Oc2c([H])c([H])c(N([H])[H])c([H])c2C(=O)N([H])c2c([H])c([H])c(-c3c([H])c([H])c([H])c([H])c3S(=O)(=O)N([H])[H])c([H])c2[H])c1[H])N([H])[H]


 44 47  0  0  0  0  0  0  0  0999 V2000
   51.5174   -5.2652   -6.1080 C   0  0  0  0  0  0  0  0  0  0  0  0
   50.4741   -5.6323   -5.2204 C   0  0  0  0  0  0  0  0  0  0  0  0
   49.5083   -4.7245   -4.8779 C   0  0  0  0  0  0  0  0  0  0  0  0
   49.5845   -3.4637   -5.4148 C   0  0  0  0  0  0  0  0  0  0  0  0
   48.5819   -2.5379   -5.0352 N   0  0  0  0  0  0  0  0  0  0  0  0
   50.5908   -3.1119   -6.2781 C   0  0  0  0  0  0  0  0  0  0  0  0
   51.6104   -4.0475   -6.6580 C   0  0  0  0  0  0  0  0  0  0  0  0
   48.1006   -1.9537   -5.7255 H   0  0  0  0  0  0  0  0  0  0  0  0
   48.3664   -2.4753   -4.0271 H   0  0  0  0  0  0  0  0  0  0  0  0
   52.3763   -3.6537   -7.8717 C   0  0  0  0  0  0  0  0  0  0  0  0
   51.6253   -2.9280   -8.6484 O   0  0  0  0  0  0  0  0  0  0  0  0
   53.6169   -3.9243   -8.2210 N   0  0  0  0  0  0  0  0  0  0  0  0
   53.5527   -2.8854   -9.1444 H   0  0  0  0  0  0  0  0  0  0  0  0
   54.9163   -4.2077   -8.5868 C   0  0  0  0  0  0  0  0  0  0  0  0
   55.2360   -4.3549   -9.9569 C   0  0  0  0  0  0  0  0  0  0  0  0
   56.4957   -4.7200  -10.3742 C   0  0  0  0  0  0  0  0  0  0  0  0
   57.5022   -4.9582   -9.4734 C   0  0  0  0  0  0  0  0  0  0  0  0
   57.2223   -4.8184   -8.1389 C   0  0  0  0  0  0  0  0  0  0  0  0
   55.9589   -4.4519   -7.7075 C   0  0  0  0  0  0  0  0  0  0  0  0
   58.8218   -5.3926   -9.8719 C   0  0  0  0  0  0  0  0  0  0  0  0
   59.6272   -6.1267   -9.0217 C   0  0  0  0  0  0  0  0  0  0  0  0
   60.8947   -6.5129   -9.3758 C   0  0  0  0  0  0  0  0  0  0  0  0
   61.3811   -6.1590  -10.6155 C   0  0  0  0  0  0  0  0  0  0  0  0
   60.5984   -5.4336  -11.4715 C   0  0  0  0  0  0  0  0  0  0  0  0
   59.3133   -5.0463  -11.1066 C   0  0  0  0  0  0  0  0  0  0  0  0
   58.3838   -4.1652  -12.2475 S   0  0  0  0  0  0  0  0  0  0  0  0
   59.4577   -3.5534  -13.4914 N   0  0  0  0  0  0  0  0  0  0  0  0
   57.8403   -2.9014  -11.6023 O   0  0  0  0  0  0  0  0  0  0  0  0
   57.2948   -4.9552  -12.9138 O   0  0  0  0  0  0  0  0  0  0  0  0
   60.0515   -2.7804  -13.1239 H   0  0  0  0  0  0  0  0  0  0  0  0
   60.0746   -4.3174  -13.8133 H   0  0  0  0  0  0  0  0  0  0  0  0
   52.4737   -6.2765   -6.3631 O   0  0  0  0  0  0  0  0  0  0  0  0
   53.9159   -5.7246   -3.0442 C   0  0  0  0  0  0  0  0  0  0  0  0
   55.1828   -6.2536   -3.1777 C   0  0  0  0  0  0  0  0  0  0  0  0
   55.6177   -6.8137   -4.3526 C   0  0  0  0  0  0  0  0  0  0  0  0
   54.7085   -6.8252   -5.4237 C   0  0  0  0  0  0  0  0  0  0  0  0
   53.4655   -6.3247   -5.3539 C   0  0  0  0  0  0  0  0  0  0  0  0
   53.0595   -5.7553   -4.1141 C   0  0  0  0  0  0  0  0  0  0  0  0
   54.2537   -4.6394   -0.9059 N   0  0  0  0  0  0  0  0  0  0  0  0
   53.4745   -5.1182   -1.7820 C   0  0  0  0  0  0  0  0  0  0  0  0
   52.0802   -5.0794   -1.5156 N   0  0  0  0  0  0  0  0  0  0  0  0
   55.2695   -4.5688   -0.8969 H   0  0  0  0  0  0  0  0  0  0  0  0
   51.7590   -5.6632   -0.7008 H   0  0  0  0  0  0  0  0  0  0  0  0
   51.3684   -4.5508   -2.0275 H   0  0  0  0  0  0  0  0  0  0  0  0
 39 40  2  0  0  0
 40 41  1  0  0  0
 40 33  1  0  0  0
 33 34  2  0  0  0
 34 35  1  0  0  0
 35 36  2  0  0  0
 36 37  1  0  0  0
 37 32  1  0  0  0
 32  1  1  0  0  0
  1  2  2  0  0  0
  2  3  1  0  0  0
  3  4  2  0  0  0
  4  5  1  0  0  0
  4  6  1  0  0  0
  6  7  2  0  0  0
  7 10  1  0  0  0
 10 11  2  0  0  0
 10 12  1  0  0  0
 12 14  1  0  0  0
 14 15  2  0  0  0
 15 16  1  0  0  0
 16 17  2  0  0  0
 17 20  1  0  0  0
 20 21  2  0  0  0
 21 22  1  0  0  0
 22 23  2  0  0  0
 23 24  1  0  0  0
 24 25  2  0  0  0
 25 26  1  0  0  0
 26 27  1  0  0  0
 26 28  2  0  0  0
 26 29  2  0  0  0
 17 18  1  0  0  0
 18 19  2  0  0  0
 37 38  2  0  0  0
 38 33  1  0  0  0
  7  1  1  0  0  0
 19 14  1  0  0  0
 25 20  1  0  0  0
 39 42  1  0  0  0
 41 43  1  0  0  0
 41 44  1  0  0  0
  5  8  1  0  0  0
  5  9  1  0  0  0
 12 13  1  0  0  0
 27 30  1  0  0  0
 27 31  1  0  0  0
M  END
> <minimizedAffinity>
-9.87056

> <CNNscore>
0.4706888795

> <CNNaffinity>
7.1744866371

> <CNN_VS>
3.3769509792

> <CNNaffinity_variance>
0.1512337476

$$$$
[H]N=C(c1c([H])c([H])c([H])c(Oc2c([H])c([H])c(N([H])[H])c([H])c2C(=O)N([H])c2c([H])c([H])c(-c3c([H])c([H])c([H])c([H])c3S(=O)(=O)N([H])[H])c([H])c2[H])c1[H])N([H])[H]


 44 47  0  0  0  0  0  0  0  0999 V2000
   53.6571   -6.0489   -6.8067 C   0  0  0  0  0  0  0  0  0  0  0  0
   53.6213   -6.7999   -5.6043 C   0  0  0  0  0  0  0  0  0  0  0  0
   54.7579   -6.9632   -4.8589 C   0  0  0  0  0  0  0  0  0  0  0  0
   55.9174   -6.3841   -5.3100 C   0  0  0  0  0  0  0  0  0  0  0  0
   57.0832   -6.5782   -4.5291 N   0  0  0  0  0  0  0  0  0  0  0  0
   55.9491   -5.6526   -6.4701 C   0  0  0  0  0  0  0  0  0  0  0  0
   54.7699   -5.4611   -7.2649 C   0  0  0  0  0  0  0  0  0  0  0  0
   57.7093   -5.8015   -4.2958 H   0  0  0  0  0  0  0  0  0  0  0  0
   57.2748   -7.5427   -4.2139 H   0  0  0  0  0  0  0  0  0  0  0  0
   54.8721   -4.3478   -8.2473 C   0  0  0  0  0  0  0  0  0  0  0  0
   54.1133   -3.3596   -7.8713 O   0  0  0  0  0  0  0  0  0  0  0  0
   55.5808   -4.2499   -9.3529 N   0  0  0  0  0  0  0  0  0  0  0  0
   55.3902   -2.8720   -9.3186 H   0  0  0  0  0  0  0  0  0  0  0  0
   56.3232   -4.1474  -10.5110 C   0  0  0  0  0  0  0  0  0  0  0  0
   57.5832   -4.7858  -10.5874 C   0  0  0  0  0  0  0  0  0  0  0  0
   58.4026   -4.6477  -11.6845 C   0  0  0  0  0  0  0  0  0  0  0  0
   58.0300   -3.8804  -12.7586 C   0  0  0  0  0  0  0  0  0  0  0  0
   56.8117   -3.2537  -12.7142 C   0  0  0  0  0  0  0  0  0  0  0  0
   55.9793   -3.3851  -11.6158 C   0  0  0  0  0  0  0  0  0  0  0  0
   58.8854   -3.6712  -13.9046 C   0  0  0  0  0  0  0  0  0  0  0  0
   60.2038   -3.2824  -13.7596 C   0  0  0  0  0  0  0  0  0  0  0  0
   61.0139   -3.0458  -14.8408 C   0  0  0  0  0  0  0  0  0  0  0  0
   60.4994   -3.1995  -16.1097 C   0  0  0  0  0  0  0  0  0  0  0  0
   59.1970   -3.5849  -16.2736 C   0  0  0  0  0  0  0  0  0  0  0  0
   58.3812   -3.8245  -15.1728 C   0  0  0  0  0  0  0  0  0  0  0  0
   56.7692   -4.3342  -15.4615 S   0  0  0  0  0  0  0  0  0  0  0  0
   56.5919   -4.6898  -17.1694 N   0  0  0  0  0  0  0  0  0  0  0  0
   55.8153   -3.1712  -15.2457 O   0  0  0  0  0  0  0  0  0  0  0  0
   56.3451   -5.5457  -14.6828 O   0  0  0  0  0  0  0  0  0  0  0  0
   56.5965   -3.8148  -17.7347 H   0  0  0  0  0  0  0  0  0  0  0  0
   57.3801   -5.2836  -17.4763 H   0  0  0  0  0  0  0  0  0  0  0  0
   52.4294   -5.9755   -7.5067 O   0  0  0  0  0  0  0  0  0  0  0  0
   50.2002   -4.5278   -4.9899 C   0  0  0  0  0  0  0  0  0  0  0  0
   49.8296   -3.3333   -5.5714 C   0  0  0  0  0  0  0  0  0  0  0  0
   50.2925   -2.9496   -6.8051 C   0  0  0  0  0  0  0  0  0  0  0  0
   51.1683   -3.8344   -7.4564 C   0  0  0  0  0  0  0  0  0  0  0  0
   51.5625   -5.0092   -6.9419 C   0  0  0  0  0  0  0  0  0  0  0  0
   51.0568   -5.3630   -5.6592 C   0  0  0  0  0  0  0  0  0  0  0  0
   48.5252   -4.6459   -3.2451 N   0  0  0  0  0  0  0  0  0  0  0  0
   49.6834   -4.9255   -3.6744 C   0  0  0  0  0  0  0  0  0  0  0  0
   50.5446   -5.6598   -2.8167 N   0  0  0  0  0  0  0  0  0  0  0  0
   47.7638   -4.1366   -3.6900 H   0  0  0  0  0  0  0  0  0  0  0  0
   50.8326   -5.1650   -1.9335 H   0  0  0  0  0  0  0  0  0  0  0  0
   50.9077   -6.6050   -2.9684 H   0  0  0  0  0  0  0  0  0  0  0  0
 39 40  2  0  0  0
 40 41  1  0  0  0
 40 33  1  0  0  0
 33 34  2  0  0  0
 34 35  1  0  0  0
 35 36  2  0  0  0
 36 37  1  0  0  0
 37 32  1  0  0  0
 32  1  1  0  0  0
  1  2  2  0  0  0
  2  3  1  0  0  0
  3  4  2  0  0  0
  4  5  1  0  0  0
  4  6  1  0  0  0
  6  7  2  0  0  0
  7 10  1  0  0  0
 10 11  2  0  0  0
 10 12  1  0  0  0
 12 14  1  0  0  0
 14 15  2  0  0  0
 15 16  1  0  0  0
 16 17  2  0  0  0
 17 20  1  0  0  0
 20 21  2  0  0  0
 21 22  1  0  0  0
 22 23  2  0  0  0
 23 24  1  0  0  0
 24 25  2  0  0  0
 25 26  1  0  0  0
 26 27  1  0  0  0
 26 28  2  0  0  0
 26 29  2  0  0  0
 17 18  1  0  0  0
 18 19  2  0  0  0
 37 38  2  0  0  0
 38 33  1  0  0  0
  7  1  1  0  0  0
 19 14  1  0  0  0
 25 20  1  0  0  0
 39 42  1  0  0  0
 41 43  1  0  0  0
 41 44  1  0  0  0
  5  8  1  0  0  0
  5  9  1  0  0  0
 12 13  1  0  0  0
 27 30  1  0  0  0
 27 31  1  0  0  0
M  END
> <minimizedAffinity>
-9.57690

> <CNNscore>
0.3082134426

> <CNNaffinity>
6.7071824074

> <CNN_VS>
2.0672438145

> <CNNaffinity_variance>
0.0837773830

$$$$
[H]N=C(c1c([H])c([H])c([H])c(Oc2c([H])c([H])c(N([H])[H])c([H])c2C(=O)N([H])c2c([H])c([H])c(-c3c([H])c([H])c([H])c([H])c3S(=O)(=O)N([H])[H])c([H])c2[H])c1[H])N([H])[H]


 44 47  0  0  0  0  0  0  0  0999 V2000
   52.5434   -4.6207   -7.4441 C   0  0  0  0  0  0  0  0  0  0  0  0
   52.5844   -3.5925   -8.4198 C   0  0  0  0  0  0  0  0  0  0  0  0
   51.6715   -2.5729   -8.3862 C   0  0  0  0  0  0  0  0  0  0  0  0
   50.7275   -2.5809   -7.3902 C   0  0  0  0  0  0  0  0  0  0  0  0
   49.7853   -1.5231   -7.3840 N   0  0  0  0  0  0  0  0  0  0  0  0
   50.6930   -3.5729   -6.4433 C   0  0  0  0  0  0  0  0  0  0  0  0
   51.6431   -4.6481   -6.4528 C   0  0  0  0  0  0  0  0  0  0  0  0
   49.5532   -1.0151   -6.5251 H   0  0  0  0  0  0  0  0  0  0  0  0
   49.3382   -1.2953   -8.2865 H   0  0  0  0  0  0  0  0  0  0  0  0
   51.7236   -5.4008   -5.1715 C   0  0  0  0  0  0  0  0  0  0  0  0
   50.5277   -5.5735   -4.6880 O   0  0  0  0  0  0  0  0  0  0  0  0
   52.7691   -5.8760   -4.5271 N   0  0  0  0  0  0  0  0  0  0  0  0
   51.9115   -6.6942   -3.7982 H   0  0  0  0  0  0  0  0  0  0  0  0
   53.8643   -6.3737   -3.8521 C   0  0  0  0  0  0  0  0  0  0  0  0
   54.5975   -7.4459   -4.4123 C   0  0  0  0  0  0  0  0  0  0  0  0
   55.6459   -8.0367   -3.7447 C   0  0  0  0  0  0  0  0  0  0  0  0
   56.0280   -7.6082   -2.4990 C   0  0  0  0  0  0  0  0  0  0  0  0
   55.3383   -6.5674   -1.9335 C   0  0  0  0  0  0  0  0  0  0  0  0
   54.2818   -5.9656   -2.5955 C   0  0  0  0  0  0  0  0  0  0  0  0
   57.0898   -8.2373   -1.7471 C   0  0  0  0  0  0  0  0  0  0  0  0
   56.8231   -9.1811   -0.7732 C   0  0  0  0  0  0  0  0  0  0  0  0
   57.8204   -9.7576   -0.0286 C   0  0  0  0  0  0  0  0  0  0  0  0
   59.1273   -9.3855   -0.2570 C   0  0  0  0  0  0  0  0  0  0  0  0
   59.4113   -8.4538   -1.2176 C   0  0  0  0  0  0  0  0  0  0  0  0
   58.3954   -7.8740   -1.9701 C   0  0  0  0  0  0  0  0  0  0  0  0
   58.8358   -6.7369   -3.1763 S   0  0  0  0  0  0  0  0  0  0  0  0
   58.8110   -7.5376   -4.7361 N   0  0  0  0  0  0  0  0  0  0  0  0
   60.2945   -6.3463   -3.0070 O   0  0  0  0  0  0  0  0  0  0  0  0
   57.9479   -5.5289   -3.2540 O   0  0  0  0  0  0  0  0  0  0  0  0
   59.6100   -8.1997   -4.8280 H   0  0  0  0  0  0  0  0  0  0  0  0
   57.9303   -8.0700   -4.8306 H   0  0  0  0  0  0  0  0  0  0  0  0
   53.5168   -5.6361   -7.5992 O   0  0  0  0  0  0  0  0  0  0  0  0
   56.7942   -4.6794   -8.9193 C   0  0  0  0  0  0  0  0  0  0  0  0
   57.4266   -4.1674   -7.8056 C   0  0  0  0  0  0  0  0  0  0  0  0
   56.8106   -4.1104   -6.5805 C   0  0  0  0  0  0  0  0  0  0  0  0
   55.4959   -4.6008   -6.5090 C   0  0  0  0  0  0  0  0  0  0  0  0
   54.8310   -5.1114   -7.5566 C   0  0  0  0  0  0  0  0  0  0  0  0
   55.5109   -5.1482   -8.8066 C   0  0  0  0  0  0  0  0  0  0  0  0
   58.4694   -5.4866  -10.4706 N   0  0  0  0  0  0  0  0  0  0  0  0
   57.4756   -4.7431  -10.2184 C   0  0  0  0  0  0  0  0  0  0  0  0
   57.0001   -3.9029  -11.2597 N   0  0  0  0  0  0  0  0  0  0  0  0
   58.9601   -6.1527   -9.8770 H   0  0  0  0  0  0  0  0  0  0  0  0
   57.6668   -3.1520  -11.5751 H   0  0  0  0  0  0  0  0  0  0  0  0
   56.0899   -3.9525  -11.7260 H   0  0  0  0  0  0  0  0  0  0  0  0
 39 40  2  0  0  0
 40 41  1  0  0  0
 40 33  1  0  0  0
 33 34  2  0  0  0
 34 35  1  0  0  0
 35 36  2  0  0  0
 36 37  1  0  0  0
 37 32  1  0  0  0
 32  1  1  0  0  0
  1  2  2  0  0  0
  2  3  1  0  0  0
  3  4  2  0  0  0
  4  5  1  0  0  0
  4  6  1  0  0  0
  6  7  2  0  0  0
  7 10  1  0  0  0
 10 11  2  0  0  0
 10 12  1  0  0  0
 12 14  1  0  0  0
 14 15  2  0  0  0
 15 16  1  0  0  0
 16 17  2  0  0  0
 17 20  1  0  0  0
 20 21  2  0  0  0
 21 22  1  0  0  0
 22 23  2  0  0  0
 23 24  1  0  0  0
 24 25  2  0  0  0
 25 26  1  0  0  0
 26 27  1  0  0  0
 26 28  2  0  0  0
 26 29  2  0  0  0
 17 18  1  0  0  0
 18 19  2  0  0  0
 37 38  2  0  0  0
 38 33  1  0  0  0
  7  1  1  0  0  0
 19 14  1  0  0  0
 25 20  1  0  0  0
 39 42  1  0  0  0
 41 43  1  0  0  0
 41 44  1  0  0  0
  5  8  1  0  0  0
  5  9  1  0  0  0
 12 13  1  0  0  0
 27 30  1  0  0  0
 27 31  1  0  0  0
M  END
> <minimizedAffinity>
-8.42787

> <CNNscore>
0.2793924212

> <CNNaffinity>
7.1047325134

> <CNN_VS>
1.9850084782

> <CNNaffinity_variance>
0.1668857634

$$$$
[H]N=C(c1c([H])c([H])c([H])c(Oc2c([H])c([H])c(N([H])[H])c([H])c2C(=O)N([H])c2c([H])c([H])c(-c3c([H])c([H])c([H])c([H])c3S(=O)(=O)N([H])[H])c([H])c2[H])c1[H])N([H])[H]


 44 47  0  0  0  0  0  0  0  0999 V2000
   52.7712   -5.3044   -6.4658 C   0  0  0  0  0  0  0  0  0  0  0  0
   51.4198   -4.8756   -6.4366 C   0  0  0  0  0  0  0  0  0  0  0  0
   51.0191   -3.8056   -7.1908 C   0  0  0  0  0  0  0  0  0  0  0  0
   51.9579   -3.1702   -7.9644 C   0  0  0  0  0  0  0  0  0  0  0  0
   51.5228   -2.0576   -8.7254 N   0  0  0  0  0  0  0  0  0  0  0  0
   53.2635   -3.5901   -7.9964 C   0  0  0  0  0  0  0  0  0  0  0  0
   53.7063   -4.7132   -7.2207 C   0  0  0  0  0  0  0  0  0  0  0  0
   51.7765   -1.9488   -9.7120 H   0  0  0  0  0  0  0  0  0  0  0  0
   50.9441   -1.3575   -8.2339 H   0  0  0  0  0  0  0  0  0  0  0  0
   55.0139   -5.2756   -7.6553 C   0  0  0  0  0  0  0  0  0  0  0  0
   55.3702   -6.2323   -6.8481 O   0  0  0  0  0  0  0  0  0  0  0  0
   55.7840   -4.9522   -8.6734 N   0  0  0  0  0  0  0  0  0  0  0  0
   56.4431   -6.1685   -8.5237 H   0  0  0  0  0  0  0  0  0  0  0  0
   56.5907   -4.6134   -9.7398 C   0  0  0  0  0  0  0  0  0  0  0  0
   56.2200   -3.5345  -10.5762 C   0  0  0  0  0  0  0  0  0  0  0  0
   56.9411   -3.2062  -11.7016 C   0  0  0  0  0  0  0  0  0  0  0  0
   58.0581   -3.9156  -12.0628 C   0  0  0  0  0  0  0  0  0  0  0  0
   58.4437   -4.9636  -11.2679 C   0  0  0  0  0  0  0  0  0  0  0  0
   57.7260   -5.3032  -10.1338 C   0  0  0  0  0  0  0  0  0  0  0  0
   58.8099   -3.6323  -13.2641 C   0  0  0  0  0  0  0  0  0  0  0  0
   60.1541   -3.3140  -13.2159 C   0  0  0  0  0  0  0  0  0  0  0  0
   60.8684   -3.0078  -14.3460 C   0  0  0  0  0  0  0  0  0  0  0  0
   60.2284   -3.0171  -15.5662 C   0  0  0  0  0  0  0  0  0  0  0  0
   58.8985   -3.3308  -15.6343 C   0  0  0  0  0  0  0  0  0  0  0  0
   58.1802   -3.6417  -14.4845 C   0  0  0  0  0  0  0  0  0  0  0  0
   56.5244   -4.0543  -14.6570 S   0  0  0  0  0  0  0  0  0  0  0  0
   56.1300   -4.0849  -16.3653 N   0  0  0  0  0  0  0  0  0  0  0  0
   55.6552   -2.9306  -14.1177 O   0  0  0  0  0  0  0  0  0  0  0  0
   56.1425   -5.3791  -14.0628 O   0  0  0  0  0  0  0  0  0  0  0  0
   56.1061   -3.1209  -16.7596 H   0  0  0  0  0  0  0  0  0  0  0  0
   56.8492   -4.6289  -16.8702 H   0  0  0  0  0  0  0  0  0  0  0  0
   53.0730   -6.3996   -5.6220 O   0  0  0  0  0  0  0  0  0  0  0  0
   54.3542   -5.2316   -2.3981 C   0  0  0  0  0  0  0  0  0  0  0  0
   53.2309   -5.2712   -1.5986 C   0  0  0  0  0  0  0  0  0  0  0  0
   52.0105   -5.6771   -2.0774 C   0  0  0  0  0  0  0  0  0  0  0  0
   51.9541   -6.0542   -3.4297 C   0  0  0  0  0  0  0  0  0  0  0  0
   53.0123   -6.0381   -4.2546 C   0  0  0  0  0  0  0  0  0  0  0  0
   54.2563   -5.6084   -3.7124 C   0  0  0  0  0  0  0  0  0  0  0  0
   56.6340   -4.4341   -2.5730 N   0  0  0  0  0  0  0  0  0  0  0  0
   55.6536   -4.8063   -1.8628 C   0  0  0  0  0  0  0  0  0  0  0  0
   55.8311   -4.8281   -0.4542 N   0  0  0  0  0  0  0  0  0  0  0  0
   56.7185   -4.3472   -3.5840 H   0  0  0  0  0  0  0  0  0  0  0  0
   56.5393   -5.5206   -0.0982 H   0  0  0  0  0  0  0  0  0  0  0  0
   55.3477   -4.2490    0.2381 H   0  0  0  0  0  0  0  0  0  0  0  0
 39 40  2  0  0  0
 40 41  1  0  0  0
 40 33  1  0  0  0
 33 34  2  0  0  0
 34 35  1  0  0  0
 35 36  2  0  0  0
 36 37  1  0  0  0
 37 32  1  0  0  0
 32  1  1  0  0  0
  1  2  2  0  0  0
  2  3  1  0  0  0
  3  4  2  0  0  0
  4  5  1  0  0  0
  4  6  1  0  0  0
  6  7  2  0  0  0
  7 10  1  0  0  0
 10 11  2  0  0  0
 10 12  1  0  0  0
 12 14  1  0  0  0
 14 15  2  0  0  0
 15 16  1  0  0  0
 16 17  2  0  0  0
 17 20  1  0  0  0
 20 21  2  0  0  0
 21 22  1  0  0  0
 22 23  2  0  0  0
 23 24  1  0  0  0
 24 25  2  0  0  0
 25 26  1  0  0  0
 26 27  1  0  0  0
 26 28  2  0  0  0
 26 29  2  0  0  0
 17 18  1  0  0  0
 18 19  2  0  0  0
 37 38  2  0  0  0
 38 33  1  0  0  0
  7  1  1  0  0  0
 19 14  1  0  0  0
 25 20  1  0  0  0
 39 42  1  0  0  0
 41 43  1  0  0  0
 41 44  1  0  0  0
  5  8  1  0  0  0
  5  9  1  0  0  0
 12 13  1  0  0  0
 27 30  1  0  0  0
 27 31  1  0  0  0
M  END
> <minimizedAffinity>
-9.92905

> <CNNscore>
0.2679790854

> <CNNaffinity>
6.7022500038

> <CNN_VS>
1.7960628271

> <CNNaffinity_variance>
0.1840663850

$$$$
[H]N=C(c1c([H])c([H])c([H])c(Oc2c([H])c([H])c(N([H])[H])c([H])c2C(=O)N([H])c2c([H])c([H])c(-c3c([H])c([H])c([H])c([H])c3S(=O)(=O)N([H])[H])c([H])c2[H])c1[H])N([H])[H]


 44 47  0  0  0  0  0  0  0  0999 V2000
   54.1519   -6.1196   -6.9132 C   0  0  0  0  0  0  0  0  0  0  0  0
   53.9655   -6.9941   -5.8126 C   0  0  0  0  0  0  0  0  0  0  0  0
   55.0109   -7.2854   -4.9781 C   0  0  0  0  0  0  0  0  0  0  0  0
   56.2292   -6.7108   -5.2408 C   0  0  0  0  0  0  0  0  0  0  0  0
   57.2990   -7.0377   -4.3717 N   0  0  0  0  0  0  0  0  0  0  0  0
   56.4065   -5.8601   -6.3022 C   0  0  0  0  0  0  0  0  0  0  0  0
   55.3248   -5.5335   -7.1867 C   0  0  0  0  0  0  0  0  0  0  0  0
   57.9206   -6.3183   -3.9902 H   0  0  0  0  0  0  0  0  0  0  0  0
   57.4260   -8.0380   -4.1487 H   0  0  0  0  0  0  0  0  0  0  0  0
   55.5652   -4.3258   -8.0225 C   0  0  0  0  0  0  0  0  0  0  0  0
   55.2835   -3.2553   -7.3381 O   0  0  0  0  0  0  0  0  0  0  0  0
   55.9960   -4.2201   -9.2624 N   0  0  0  0  0  0  0  0  0  0  0  0
   56.2865   -2.8817   -9.0166 H   0  0  0  0  0  0  0  0  0  0  0  0
   56.4473   -4.1094  -10.5612 C   0  0  0  0  0  0  0  0  0  0  0  0
   55.7484   -3.2824  -11.4715 C   0  0  0  0  0  0  0  0  0  0  0  0
   56.1033   -3.2001  -12.7987 C   0  0  0  0  0  0  0  0  0  0  0  0
   57.1575   -3.9209  -13.2991 C   0  0  0  0  0  0  0  0  0  0  0  0
   57.8561   -4.7272  -12.4386 C   0  0  0  0  0  0  0  0  0  0  0  0
   57.5081   -4.8182  -11.1018 C   0  0  0  0  0  0  0  0  0  0  0  0
   57.5268   -3.8989  -14.6962 C   0  0  0  0  0  0  0  0  0  0  0  0
   56.6094   -4.1853  -15.6897 C   0  0  0  0  0  0  0  0  0  0  0  0
   56.9579   -4.2030  -17.0161 C   0  0  0  0  0  0  0  0  0  0  0  0
   58.2607   -3.9278  -17.3703 C   0  0  0  0  0  0  0  0  0  0  0  0
   59.1828   -3.6409  -16.4013 C   0  0  0  0  0  0  0  0  0  0  0  0
   58.8226   -3.6232  -15.0580 C   0  0  0  0  0  0  0  0  0  0  0  0
   60.0293   -3.2244  -13.9063 S   0  0  0  0  0  0  0  0  0  0  0  0
   61.2242   -2.1998  -14.6794 N   0  0  0  0  0  0  0  0  0  0  0  0
   60.8209   -4.4683  -13.5386 O   0  0  0  0  0  0  0  0  0  0  0  0
   59.5211   -2.5144  -12.6851 O   0  0  0  0  0  0  0  0  0  0  0  0
   61.8046   -2.7455  -15.3507 H   0  0  0  0  0  0  0  0  0  0  0  0
   60.7417   -1.4473  -15.1980 H   0  0  0  0  0  0  0  0  0  0  0  0
   53.0084   -5.9187   -7.7222 O   0  0  0  0  0  0  0  0  0  0  0  0
   50.6906   -4.6506   -5.1885 C   0  0  0  0  0  0  0  0  0  0  0  0
   50.2994   -3.4400   -5.7213 C   0  0  0  0  0  0  0  0  0  0  0  0
   50.7764   -2.9864   -6.9255 C   0  0  0  0  0  0  0  0  0  0  0  0
   51.6889   -3.8160   -7.5986 C   0  0  0  0  0  0  0  0  0  0  0  0
   52.1044   -5.0033   -7.1314 C   0  0  0  0  0  0  0  0  0  0  0  0
   51.5827   -5.4305   -5.8778 C   0  0  0  0  0  0  0  0  0  0  0  0
   48.9914   -4.8779   -3.4782 N   0  0  0  0  0  0  0  0  0  0  0  0
   50.1584   -5.1236   -3.9044 C   0  0  0  0  0  0  0  0  0  0  0  0
   51.0139   -5.8956   -3.0747 N   0  0  0  0  0  0  0  0  0  0  0  0
   48.2318   -4.3519   -3.9064 H   0  0  0  0  0  0  0  0  0  0  0  0
   51.2843   -5.4469   -2.1618 H   0  0  0  0  0  0  0  0  0  0  0  0
   51.3883   -6.8280   -3.2718 H   0  0  0  0  0  0  0  0  0  0  0  0
 39 40  2  0  0  0
 40 41  1  0  0  0
 40 33  1  0  0  0
 33 34  2  0  0  0
 34 35  1  0  0  0
 35 36  2  0  0  0
 36 37  1  0  0  0
 37 32  1  0  0  0
 32  1  1  0  0  0
  1  2  2  0  0  0
  2  3  1  0  0  0
  3  4  2  0  0  0
  4  5  1  0  0  0
  4  6  1  0  0  0
  6  7  2  0  0  0
  7 10  1  0  0  0
 10 11  2  0  0  0
 10 12  1  0  0  0
 12 14  1  0  0  0
 14 15  2  0  0  0
 15 16  1  0  0  0
 16 17  2  0  0  0
 17 20  1  0  0  0
 20 21  2  0  0  0
 21 22  1  0  0  0
 22 23  2  0  0  0
 23 24  1  0  0  0
 24 25  2  0  0  0
 25 26  1  0  0  0
 26 27  1  0  0  0
 26 28  2  0  0  0
 26 29  2  0  0  0
 17 18  1  0  0  0
 18 19  2  0  0  0
 37 38  2  0  0  0
 38 33  1  0  0  0
  7  1  1  0  0  0
 19 14  1  0  0  0
 25 20  1  0  0  0
 39 42  1  0  0  0
 41 43  1  0  0  0
 41 44  1  0  0  0
  5  8  1  0  0  0
  5  9  1  0  0  0
 12 13  1  0  0  0
 27 30  1  0  0  0
 27 31  1  0  0  0
M  END
> <minimizedAffinity>
-7.83085

> <CNNscore>
0.2574510574

> <CNNaffinity>
6.4837632179

> <CNN_VS>
1.6692516804

> <CNNaffinity_variance>
0.0970840305

$$$$
[H]N=C(c1c([H])c([H])c([H])c(Oc2c([H])c([H])c(N([H])[H])c([H])c2C(=O)N([H])c2c([H])c([H])c(-c3c([H])c([H])c([H])c([H])c3S(=O)(=O)N([H])[H])c([H])c2[H])c1[H])N([H])[H]


 44 47  0  0  0  0  0  0  0  0999 V2000
   56.7819   -5.1481   -9.8811 C   0  0  0  0  0  0  0  0  0  0  0  0
   58.1814   -5.3708   -9.8293 C   0  0  0  0  0  0  0  0  0  0  0  0
   59.0032   -4.8199  -10.7755 C   0  0  0  0  0  0  0  0  0  0  0  0
   58.4333   -4.0564  -11.7633 C   0  0  0  0  0  0  0  0  0  0  0  0
   59.3020   -3.5082  -12.7388 N   0  0  0  0  0  0  0  0  0  0  0  0
   57.0800   -3.8367  -11.8086 C   0  0  0  0  0  0  0  0  0  0  0  0
   56.1988   -4.3970  -10.8245 C   0  0  0  0  0  0  0  0  0  0  0  0
   59.2364   -2.5271  -13.0263 H   0  0  0  0  0  0  0  0  0  0  0  0
   59.9989   -4.1490  -13.1515 H   0  0  0  0  0  0  0  0  0  0  0  0
   54.8545   -3.7604  -10.7781 C   0  0  0  0  0  0  0  0  0  0  0  0
   54.5892   -3.2108  -11.9275 O   0  0  0  0  0  0  0  0  0  0  0  0
   53.9756   -3.6966   -9.7994 N   0  0  0  0  0  0  0  0  0  0  0  0
   53.0024   -3.3575  -10.7344 H   0  0  0  0  0  0  0  0  0  0  0  0
   53.0550   -3.6298   -8.7743 C   0  0  0  0  0  0  0  0  0  0  0  0
   52.7948   -4.7833   -7.9979 C   0  0  0  0  0  0  0  0  0  0  0  0
   51.8274   -4.7976   -7.0191 C   0  0  0  0  0  0  0  0  0  0  0  0
   51.0691   -3.6863   -6.7521 C   0  0  0  0  0  0  0  0  0  0  0  0
   51.3028   -2.5523   -7.4858 C   0  0  0  0  0  0  0  0  0  0  0  0
   52.2731   -2.5264   -8.4731 C   0  0  0  0  0  0  0  0  0  0  0  0
   50.0107   -3.6796   -5.7680 C   0  0  0  0  0  0  0  0  0  0  0  0
   48.9817   -2.7583   -5.8212 C   0  0  0  0  0  0  0  0  0  0  0  0
   47.9923   -2.7197   -4.8721 C   0  0  0  0  0  0  0  0  0  0  0  0
   48.0238   -3.6254   -3.8342 C   0  0  0  0  0  0  0  0  0  0  0  0
   49.0336   -4.5458   -3.7651 C   0  0  0  0  0  0  0  0  0  0  0  0
   50.0333   -4.5804   -4.7316 C   0  0  0  0  0  0  0  0  0  0  0  0
   51.2470   -5.7841   -4.5913 S   0  0  0  0  0  0  0  0  0  0  0  0
   51.0894   -6.5583   -3.0258 N   0  0  0  0  0  0  0  0  0  0  0  0
   52.6161   -5.1285   -4.5208 O   0  0  0  0  0  0  0  0  0  0  0  0
   51.2003   -6.8487   -5.6488 O   0  0  0  0  0  0  0  0  0  0  0  0
   51.3953   -5.9196   -2.2618 H   0  0  0  0  0  0  0  0  0  0  0  0
   50.0990   -6.8081   -2.8687 H   0  0  0  0  0  0  0  0  0  0  0  0
   56.0323   -5.7934   -8.8691 O   0  0  0  0  0  0  0  0  0  0  0  0
   56.0915   -5.4880   -5.2218 C   0  0  0  0  0  0  0  0  0  0  0  0
   56.3391   -4.1435   -5.0390 C   0  0  0  0  0  0  0  0  0  0  0  0
   56.4995   -3.2825   -6.0956 C   0  0  0  0  0  0  0  0  0  0  0  0
   56.3996   -3.8348   -7.3837 C   0  0  0  0  0  0  0  0  0  0  0  0
   56.1588   -5.1329   -7.6233 C   0  0  0  0  0  0  0  0  0  0  0  0
   56.0010   -5.9868   -6.4955 C   0  0  0  0  0  0  0  0  0  0  0  0
   54.8103   -6.9310   -3.7587 N   0  0  0  0  0  0  0  0  0  0  0  0
   55.9102   -6.3901   -4.0776 C   0  0  0  0  0  0  0  0  0  0  0  0
   57.0399   -6.6634   -3.2618 N   0  0  0  0  0  0  0  0  0  0  0  0
   53.8945   -6.8690   -4.1995 H   0  0  0  0  0  0  0  0  0  0  0  0
   56.9822   -6.3040   -2.2742 H   0  0  0  0  0  0  0  0  0  0  0  0
   57.8901   -7.1654   -3.5328 H   0  0  0  0  0  0  0  0  0  0  0  0
 39 40  2  0  0  0
 40 41  1  0  0  0
 40 33  1  0  0  0
 33 34  2  0  0  0
 34 35  1  0  0  0
 35 36  2  0  0  0
 36 37  1  0  0  0
 37 32  1  0  0  0
 32  1  1  0  0  0
  1  2  2  0  0  0
  2  3  1  0  0  0
  3  4  2  0  0  0
  4  5  1  0  0  0
  4  6  1  0  0  0
  6  7  2  0  0  0
  7 10  1  0  0  0
 10 11  2  0  0  0
 10 12  1  0  0  0
 12 14  1  0  0  0
 14 15  2  0  0  0
 15 16  1  0  0  0
 16 17  2  0  0  0
 17 20  1  0  0  0
 20 21  2  0  0  0
 21 22  1  0  0  0
 22 23  2  0  0  0
 23 24  1  0  0  0
 24 25  2  0  0  0
 25 26  1  0  0  0
 26 27  1  0  0  0
 26 28  2  0  0  0
 26 29  2  0  0  0
 17 18  1  0  0  0
 18 19  2  0  0  0
 37 38  2  0  0  0
 38 33  1  0  0  0
  7  1  1  0  0  0
 19 14  1  0  0  0
 25 20  1  0  0  0
 39 42  1  0  0  0
 41 43  1  0  0  0
 41 44  1  0  0  0
  5  8  1  0  0  0
  5  9  1  0  0  0
 12 13  1  0  0  0
 27 30  1  0  0  0
 27 31  1  0  0  0
M  END
> <minimizedAffinity>
-7.52706

> <CNNscore>
0.2529070079

> <CNNaffinity>
6.8171319962

> <CNN_VS>
1.7241004705

> <CNNaffinity_variance>
0.1218403801

$$$$
[H]N=C(c1c([H])c([H])c([H])c(Oc2c([H])c([H])c(N([H])[H])c([H])c2C(=O)N([H])c2c([H])c([H])c(-c3c([H])c([H])c([H])c([H])c3S(=O)(=O)N([H])[H])c([H])c2[H])c1[H])N([H])[H]


 44 47  0  0  0  0  0  0  0  0999 V2000
   55.4832   -3.7351   -9.3769 C   0  0  0  0  0  0  0  0  0  0  0  0
   54.8098   -3.5353  -10.6088 C   0  0  0  0  0  0  0  0  0  0  0  0
   55.3784   -3.9538  -11.7817 C   0  0  0  0  0  0  0  0  0  0  0  0
   56.6065   -4.5637  -11.7250 C   0  0  0  0  0  0  0  0  0  0  0  0
   57.1809   -4.9757  -12.9525 N   0  0  0  0  0  0  0  0  0  0  0  0
   57.2540   -4.7618  -10.5320 C   0  0  0  0  0  0  0  0  0  0  0  0
   56.6756   -4.3389   -9.2888 C   0  0  0  0  0  0  0  0  0  0  0  0
   57.5962   -5.9053  -13.0664 H   0  0  0  0  0  0  0  0  0  0  0  0
   57.1676   -4.2894  -13.7241 H   0  0  0  0  0  0  0  0  0  0  0  0
   57.2925   -4.9628   -8.0867 C   0  0  0  0  0  0  0  0  0  0  0  0
   58.5784   -5.0677   -8.2577 O   0  0  0  0  0  0  0  0  0  0  0  0
   56.7411   -5.3808   -6.9662 N   0  0  0  0  0  0  0  0  0  0  0  0
   58.0016   -5.3725   -6.3769 H   0  0  0  0  0  0  0  0  0  0  0  0
   56.1636   -5.8185   -5.7925 C   0  0  0  0  0  0  0  0  0  0  0  0
   55.6148   -7.1209   -5.7317 C   0  0  0  0  0  0  0  0  0  0  0  0
   54.9527   -7.5792   -4.6156 C   0  0  0  0  0  0  0  0  0  0  0  0
   54.7956   -6.7877   -3.5065 C   0  0  0  0  0  0  0  0  0  0  0  0
   55.3216   -5.5222   -3.5354 C   0  0  0  0  0  0  0  0  0  0  0  0
   55.9893   -5.0504   -4.6526 C   0  0  0  0  0  0  0  0  0  0  0  0
   54.0626   -7.2164   -2.3371 C   0  0  0  0  0  0  0  0  0  0  0  0
   52.7009   -7.0083   -2.2225 C   0  0  0  0  0  0  0  0  0  0  0  0
   52.0019   -7.3782   -1.1020 C   0  0  0  0  0  0  0  0  0  0  0  0
   52.6757   -7.9748   -0.0586 C   0  0  0  0  0  0  0  0  0  0  0  0
   54.0233   -8.1903   -0.1539 C   0  0  0  0  0  0  0  0  0  0  0  0
   54.7261   -7.8140   -1.2937 C   0  0  0  0  0  0  0  0  0  0  0  0
   56.4078   -8.1463   -1.3486 S   0  0  0  0  0  0  0  0  0  0  0  0
   56.8073   -9.2320   -0.0308 N   0  0  0  0  0  0  0  0  0  0  0  0
   57.1921   -6.8882   -1.0151 O   0  0  0  0  0  0  0  0  0  0  0  0
   56.8831   -8.7677   -2.6299 O   0  0  0  0  0  0  0  0  0  0  0  0
   56.7622   -8.7383    0.8854 H   0  0  0  0  0  0  0  0  0  0  0  0
   56.1305  -10.0129   -0.0172 H   0  0  0  0  0  0  0  0  0  0  0  0
   54.8125   -3.2332   -8.2365 O   0  0  0  0  0  0  0  0  0  0  0  0
   51.3449   -3.8432   -7.2349 C   0  0  0  0  0  0  0  0  0  0  0  0
   51.2712   -5.2205   -7.2382 C   0  0  0  0  0  0  0  0  0  0  0  0
   52.3467   -6.0062   -7.5692 C   0  0  0  0  0  0  0  0  0  0  0  0
   53.5370   -5.3410   -7.9077 C   0  0  0  0  0  0  0  0  0  0  0  0
   53.6690   -4.0057   -7.9205 C   0  0  0  0  0  0  0  0  0  0  0  0
   52.5256   -3.2332   -7.5711 C   0  0  0  0  0  0  0  0  0  0  0  0
   49.3552   -3.3204   -5.9573 N   0  0  0  0  0  0  0  0  0  0  0  0
   50.1860   -3.0209   -6.8652 C   0  0  0  0  0  0  0  0  0  0  0  0
   49.9706   -1.8152   -7.5838 N   0  0  0  0  0  0  0  0  0  0  0  0
   49.3237   -4.1248   -5.3338 H   0  0  0  0  0  0  0  0  0  0  0  0
   49.0977   -1.7886   -8.1713 H   0  0  0  0  0  0  0  0  0  0  0  0
   50.5686   -0.9841   -7.5886 H   0  0  0  0  0  0  0  0  0  0  0  0
 39 40  2  0  0  0
 40 41  1  0  0  0
 40 33  1  0  0  0
 33 34  2  0  0  0
 34 35  1  0  0  0
 35 36  2  0  0  0
 36 37  1  0  0  0
 37 32  1  0  0  0
 32  1  1  0  0  0
  1  2  2  0  0  0
  2  3  1  0  0  0
  3  4  2  0  0  0
  4  5  1  0  0  0
  4  6  1  0  0  0
  6  7  2  0  0  0
  7 10  1  0  0  0
 10 11  2  0  0  0
 10 12  1  0  0  0
 12 14  1  0  0  0
 14 15  2  0  0  0
 15 16  1  0  0  0
 16 17  2  0  0  0
 17 20  1  0  0  0
 20 21  2  0  0  0
 21 22  1  0  0  0
 22 23  2  0  0  0
 23 24  1  0  0  0
 24 25  2  0  0  0
 25 26  1  0  0  0
 26 27  1  0  0  0
 26 28  2  0  0  0
 26 29  2  0  0  0
 17 18  1  0  0  0
 18 19  2  0  0  0
 37 38  2  0  0  0
 38 33  1  0  0  0
  7  1  1  0  0  0
 19 14  1  0  0  0
 25 20  1  0  0  0
 39 42  1  0  0  0
 41 43  1  0  0  0
 41 44  1  0  0  0
  5  8  1  0  0  0
  5  9  1  0  0  0
 12 13  1  0  0  0
 27 30  1  0  0  0
 27 31  1  0  0  0
M  END
> <minimizedAffinity>
-9.36351

> <CNNscore>
0.2326180339

> <CNNaffinity>
7.0996947289

> <CNN_VS>
1.6515170336

> <CNNaffinity_variance>
0.1914030612

$$$$
[H]N1C(=NC2([H])C([H])([H])C([H])([H])C([H])([H])C([H])([H])C([H])([H])C([H])([H])C2([H])[H])O[C@@]2([H])C([H])([H])C([H])([H])C([H])([H])C([H])([H])[C@@]2([H])S1(=O)=O


 22 24  0  0  0  0  0  0  0  0999 V2000
   62.2593   -9.1957  -11.7573 O   0  0  0  0  0  0  0  0  0  0  0  0
   62.4947   -9.4954  -10.3098 S   0  0  0  0  0  0  0  0  0  0  0  0
   61.2843   -9.1970   -9.4696 O   0  0  0  0  0  0  0  0  0  0  0  0
   63.8582   -8.5921   -9.6975 N   0  0  0  0  0  0  0  0  0  0  0  0
   64.6383   -9.1768   -8.6770 C   0  0  0  0  0  0  0  0  0  0  0  0
   65.2810   -8.4269   -7.8712 N   0  0  0  0  0  0  0  0  0  0  0  0
   64.7157  -10.5329   -8.5389 O   0  0  0  0  0  0  0  0  0  0  0  0
   63.7672  -11.4667   -8.9152 C   0  0  0  0  0  0  0  0  0  0  0  0
   62.9185  -11.7750   -7.6724 C   0  0  0  0  0  0  0  0  0  0  0  0
   62.3236  -13.1384   -7.8821 C   0  0  0  0  0  0  0  0  0  0  0  0
   61.9115  -13.3329   -9.3038 C   0  0  0  0  0  0  0  0  0  0  0  0
   61.6239  -11.9781   -9.9537 C   0  0  0  0  0  0  0  0  0  0  0  0
   62.9130  -11.1929  -10.0803 C   0  0  0  0  0  0  0  0  0  0  0  0
   64.0150   -7.6841  -10.1201 H   0  0  0  0  0  0  0  0  0  0  0  0
   65.2710   -6.9929   -7.9240 C   0  0  0  0  0  0  0  0  0  0  0  0
   63.9264   -6.4376   -8.3282 C   0  0  0  0  0  0  0  0  0  0  0  0
   63.0404   -6.0715   -7.1861 C   0  0  0  0  0  0  0  0  0  0  0  0
   62.6050   -7.2098   -6.3273 C   0  0  0  0  0  0  0  0  0  0  0  0
   62.9312   -6.9835   -4.8556 C   0  0  0  0  0  0  0  0  0  0  0  0
   64.3095   -6.4467   -4.6449 C   0  0  0  0  0  0  0  0  0  0  0  0
   65.2971   -7.2472   -5.4302 C   0  0  0  0  0  0  0  0  0  0  0  0
   65.7511   -6.4212   -6.6115 C   0  0  0  0  0  0  0  0  0  0  0  0
  1  2  2  0  0  0
  2  3  2  0  0  0
  2  4  1  0  0  0
  4  5  1  0  0  0
  5  6  2  0  0  0
  6 15  1  0  0  0
 15 16  1  0  0  0
 16 17  1  0  0  0
 17 18  1  0  0  0
 18 19  1  0  0  0
 19 20  1  0  0  0
 20 21  1  0  0  0
 21 22  1  0  0  0
  5  7  1  0  0  0
  7  8  1  0  0  0
  8  9  1  0  0  0
  9 10  1  0  0  0
 10 11  1  0  0  0
 11 12  1  0  0  0
 12 13  1  0  0  0
 13  2  1  0  0  0
 22 15  1  0  0  0
 13  8  1  0  0  0
  4 14  1  0  0  0
M  END
> <minimizedAffinity>
-1.68285

> <CNNscore>
0.5792143345

> <CNNaffinity>
4.5336256027

> <CNN_VS>
2.6259410381

> <CNNaffinity_variance>
0.6018170118

$$$$
[H]N1C(=NC2([H])C([H])([H])C([H])([H])C([H])([H])C([H])([H])C([H])([H])C([H])([H])C2([H])[H])O[C@@]2([H])C([H])([H])C([H])([H])C([H])([H])C([H])([H])[C@@]2([H])S1(=O)=O


 22 24  0  0  0  0  0  0  0  0999 V2000
   64.0518   -5.8554   -9.2215 O   0  0  0  0  0  0  0  0  0  0  0  0
   63.7052   -7.0678   -8.4148 S   0  0  0  0  0  0  0  0  0  0  0  0
   62.3266   -6.9739   -7.8226 O   0  0  0  0  0  0  0  0  0  0  0  0
   64.8662   -7.3207   -7.1349 N   0  0  0  0  0  0  0  0  0  0  0  0
   65.1368   -8.6471   -6.7360 C   0  0  0  0  0  0  0  0  0  0  0  0
   65.5420   -8.8749   -5.5491 N   0  0  0  0  0  0  0  0  0  0  0  0
   64.9715   -9.6905   -7.6009 O   0  0  0  0  0  0  0  0  0  0  0  0
   64.1039   -9.7553   -8.6761 C   0  0  0  0  0  0  0  0  0  0  0  0
   62.8300  -10.4610   -8.1872 C   0  0  0  0  0  0  0  0  0  0  0  0
   62.1691  -11.0506   -9.4007 C   0  0  0  0  0  0  0  0  0  0  0  0
   62.2754  -10.1308  -10.5718 C   0  0  0  0  0  0  0  0  0  0  0  0
   62.4314   -8.6873  -10.0891 C   0  0  0  0  0  0  0  0  0  0  0  0
   63.7743   -8.5231   -9.4078 C   0  0  0  0  0  0  0  0  0  0  0  0
   65.2885   -6.4847   -6.7471 H   0  0  0  0  0  0  0  0  0  0  0  0
   65.7494   -7.8564   -4.5598 C   0  0  0  0  0  0  0  0  0  0  0  0
   64.7572   -6.7243   -4.6771 C   0  0  0  0  0  0  0  0  0  0  0  0
   63.5561   -6.8624   -3.8044 C   0  0  0  0  0  0  0  0  0  0  0  0
   62.6700   -8.0196   -4.1188 C   0  0  0  0  0  0  0  0  0  0  0  0
   62.4260   -8.9094   -2.9055 C   0  0  0  0  0  0  0  0  0  0  0  0
   63.6734   -9.1848   -2.1306 C   0  0  0  0  0  0  0  0  0  0  0  0
   64.7692   -9.6057   -3.0553 C   0  0  0  0  0  0  0  0  0  0  0  0
   65.7548   -8.4668   -3.1787 C   0  0  0  0  0  0  0  0  0  0  0  0
  1  2  2  0  0  0
  2  3  2  0  0  0
  2  4  1  0  0  0
  4  5  1  0  0  0
  5  6  2  0  0  0
  6 15  1  0  0  0
 15 16  1  0  0  0
 16 17  1  0  0  0
 17 18  1  0  0  0
 18 19  1  0  0  0
 19 20  1  0  0  0
 20 21  1  0  0  0
 21 22  1  0  0  0
  5  7  1  0  0  0
  7  8  1  0  0  0
  8  9  1  0  0  0
  9 10  1  0  0  0
 10 11  1  0  0  0
 11 12  1  0  0  0
 12 13  1  0  0  0
 13  2  1  0  0  0
 22 15  1  0  0  0
 13  8  1  0  0  0
  4 14  1  0  0  0
M  END
> <minimizedAffinity>
-2.35004

> <CNNscore>
0.5637964606

> <CNNaffinity>
4.5026464462

> <CNN_VS>
2.5385761261

> <CNNaffinity_variance>
0.3585872054

$$$$
[H]N1C(=NC2([H])C([H])([H])C([H])([H])C([H])([H])C([H])([H])C([H])([H])C([H])([H])C2([H])[H])O[C@@]2([H])C([H])([H])C([H])([H])C([H])([H])C([H])([H])[C@@]2([H])S1(=O)=O


 22 24  0  0  0  0  0  0  0  0999 V2000
   60.8447   -2.8268  -14.2428 O   0  0  0  0  0  0  0  0  0  0  0  0
   62.3028   -2.9059  -14.5721 S   0  0  0  0  0  0  0  0  0  0  0  0
   62.5776   -2.5307  -16.0017 O   0  0  0  0  0  0  0  0  0  0  0  0
   62.9272   -4.5080  -14.2665 N   0  0  0  0  0  0  0  0  0  0  0  0
   64.2724   -4.6298  -13.8570 C   0  0  0  0  0  0  0  0  0  0  0  0
   64.9079   -5.7068  -14.1035 N   0  0  0  0  0  0  0  0  0  0  0  0
   64.9040   -3.6125  -13.2012 O   0  0  0  0  0  0  0  0  0  0  0  0
   64.6231   -2.2609  -13.2876 C   0  0  0  0  0  0  0  0  0  0  0  0
   65.5795   -1.6662  -14.3322 C   0  0  0  0  0  0  0  0  0  0  0  0
   65.7056   -0.2022  -14.0197 C   0  0  0  0  0  0  0  0  0  0  0  0
   64.3949    0.3719  -13.5937 C   0  0  0  0  0  0  0  0  0  0  0  0
   63.2483   -0.4569  -14.1760 C   0  0  0  0  0  0  0  0  0  0  0  0
   63.2394   -1.8297  -13.5360 C   0  0  0  0  0  0  0  0  0  0  0  0
   62.2746   -5.2719  -14.4008 H   0  0  0  0  0  0  0  0  0  0  0  0
   64.3439   -6.8366  -14.7852 C   0  0  0  0  0  0  0  0  0  0  0  0
   65.3298   -7.9691  -14.9432 C   0  0  0  0  0  0  0  0  0  0  0  0
   65.2619   -9.0020  -13.8699 C   0  0  0  0  0  0  0  0  0  0  0  0
   65.6270   -8.5269  -12.5047 C   0  0  0  0  0  0  0  0  0  0  0  0
   64.5373   -8.8172  -11.4791 C   0  0  0  0  0  0  0  0  0  0  0  0
   63.1688   -8.4901  -11.9815 C   0  0  0  0  0  0  0  0  0  0  0  0
   63.1598   -7.1275  -12.5949 C   0  0  0  0  0  0  0  0  0  0  0  0
   63.0753   -7.2792  -14.0961 C   0  0  0  0  0  0  0  0  0  0  0  0
  1  2  2  0  0  0
  2  3  2  0  0  0
  2  4  1  0  0  0
  4  5  1  0  0  0
  5  6  2  0  0  0
  6 15  1  0  0  0
 15 16  1  0  0  0
 16 17  1  0  0  0
 17 18  1  0  0  0
 18 19  1  0  0  0
 19 20  1  0  0  0
 20 21  1  0  0  0
 21 22  1  0  0  0
  5  7  1  0  0  0
  7  8  1  0  0  0
  8  9  1  0  0  0
  9 10  1  0  0  0
 10 11  1  0  0  0
 11 12  1  0  0  0
 12 13  1  0  0  0
 13  2  1  0  0  0
 22 15  1  0  0  0
 13  8  1  0  0  0
  4 14  1  0  0  0
M  END
> <minimizedAffinity>
-1.04235

> <CNNscore>
0.5542821288

> <CNNaffinity>
4.4427599907

> <CNN_VS>
2.4625425339

> <CNNaffinity_variance>
0.7981207967

$$$$
[H]N1C(=NC2([H])C([H])([H])C([H])([H])C([H])([H])C([H])([H])C([H])([H])C([H])([H])C2([H])[H])O[C@@]2([H])C([H])([H])C([H])([H])C([H])([H])C([H])([H])[C@@]2([H])S1(=O)=O


 22 24  0  0  0  0  0  0  0  0999 V2000
   63.1917  -12.9782   -6.0029 O   0  0  0  0  0  0  0  0  0  0  0  0
   63.8951  -11.9641   -6.8499 S   0  0  0  0  0  0  0  0  0  0  0  0
   65.3645  -11.8946   -6.5402 O   0  0  0  0  0  0  0  0  0  0  0  0
   63.1878  -10.3802   -6.6468 N   0  0  0  0  0  0  0  0  0  0  0  0
   63.2008   -9.5004   -7.7502 C   0  0  0  0  0  0  0  0  0  0  0  0
   63.1826   -8.2418   -7.5490 N   0  0  0  0  0  0  0  0  0  0  0  0
   63.2328   -9.9754   -9.0297 O   0  0  0  0  0  0  0  0  0  0  0  0
   63.7572  -11.1806   -9.4609 C   0  0  0  0  0  0  0  0  0  0  0  0
   65.1916  -10.9050   -9.9368 C   0  0  0  0  0  0  0  0  0  0  0  0
   65.5415  -11.9949  -10.9098 C   0  0  0  0  0  0  0  0  0  0  0  0
   64.9965  -13.3109  -10.4626 C   0  0  0  0  0  0  0  0  0  0  0  0
   64.8168  -13.3121   -8.9432 C   0  0  0  0  0  0  0  0  0  0  0  0
   63.7159  -12.3439   -8.5624 C   0  0  0  0  0  0  0  0  0  0  0  0
   62.7991  -10.1817   -5.7319 H   0  0  0  0  0  0  0  0  0  0  0  0
   63.1491   -7.6345   -6.2493 C   0  0  0  0  0  0  0  0  0  0  0  0
   64.5140   -7.1874   -5.7837 C   0  0  0  0  0  0  0  0  0  0  0  0
   64.8305   -5.7603   -6.0780 C   0  0  0  0  0  0  0  0  0  0  0  0
   64.9220   -5.4135   -7.5251 C   0  0  0  0  0  0  0  0  0  0  0  0
   64.0062   -4.2549   -7.9027 C   0  0  0  0  0  0  0  0  0  0  0  0
   62.6417   -4.3788   -7.3067 C   0  0  0  0  0  0  0  0  0  0  0  0
   62.1047   -5.7542   -7.5368 C   0  0  0  0  0  0  0  0  0  0  0  0
   62.1438   -6.5082   -6.2277 C   0  0  0  0  0  0  0  0  0  0  0  0
  1  2  2  0  0  0
  2  3  2  0  0  0
  2  4  1  0  0  0
  4  5  1  0  0  0
  5  6  2  0  0  0
  6 15  1  0  0  0
 15 16  1  0  0  0
 16 17  1  0  0  0
 17 18  1  0  0  0
 18 19  1  0  0  0
 19 20  1  0  0  0
 20 21  1  0  0  0
 21 22  1  0  0  0
  5  7  1  0  0  0
  7  8  1  0  0  0
  8  9  1  0  0  0
  9 10  1  0  0  0
 10 11  1  0  0  0
 11 12  1  0  0  0
 12 13  1  0  0  0
 13  2  1  0  0  0
 22 15  1  0  0  0
 13  8  1  0  0  0
  4 14  1  0  0  0
M  END
> <minimizedAffinity>
5.26818

> <CNNscore>
0.5260753036

> <CNNaffinity>
4.3212347031

> <CNN_VS>
2.2732949257

> <CNNaffinity_variance>
0.7802435160

$$$$
[H]N1C(=NC2([H])C([H])([H])C([H])([H])C([H])([H])C([H])([H])C([H])([H])C([H])([H])C2([H])[H])O[C@@]2([H])C([H])([H])C([H])([H])C([H])([H])C([H])([H])[C@@]2([H])S1(=O)=O


 22 24  0  0  0  0  0  0  0  0999 V2000
   61.4319  -10.0288   -6.9261 O   0  0  0  0  0  0  0  0  0  0  0  0
   61.7839   -9.4963   -5.5721 S   0  0  0  0  0  0  0  0  0  0  0  0
   61.8311  -10.5837   -4.5351 O   0  0  0  0  0  0  0  0  0  0  0  0
   60.6489   -8.2683   -5.0682 N   0  0  0  0  0  0  0  0  0  0  0  0
   61.1223   -7.2233   -4.2462 C   0  0  0  0  0  0  0  0  0  0  0  0
   60.3131   -6.6252   -3.4637 N   0  0  0  0  0  0  0  0  0  0  0  0
   62.4331   -6.8426   -4.2754 O   0  0  0  0  0  0  0  0  0  0  0  0
   63.5232   -7.6249   -4.6116 C   0  0  0  0  0  0  0  0  0  0  0  0
   64.1103   -8.1695   -3.3008 C   0  0  0  0  0  0  0  0  0  0  0  0
   65.5516   -8.4935   -3.5739 C   0  0  0  0  0  0  0  0  0  0  0  0
   65.7213   -9.0887   -4.9325 C   0  0  0  0  0  0  0  0  0  0  0  0
   64.4186   -9.7576   -5.3755 C   0  0  0  0  0  0  0  0  0  0  0  0
   63.3571   -8.7007   -5.6002 C   0  0  0  0  0  0  0  0  0  0  0  0
   59.6986   -8.3776   -5.4038 H   0  0  0  0  0  0  0  0  0  0  0  0
   58.9182   -6.9429   -3.3518 C   0  0  0  0  0  0  0  0  0  0  0  0
   58.6180   -8.3737   -3.7288 C   0  0  0  0  0  0  0  0  0  0  0  0
   58.5867   -9.3223   -2.5787 C   0  0  0  0  0  0  0  0  0  0  0  0
   59.8852   -9.5063   -1.8693 C   0  0  0  0  0  0  0  0  0  0  0  0
   59.7706   -9.2423   -0.3725 C   0  0  0  0  0  0  0  0  0  0  0  0
   58.9815   -8.0123   -0.0613 C   0  0  0  0  0  0  0  0  0  0  0  0
   59.4546   -6.8727   -0.9040 C   0  0  0  0  0  0  0  0  0  0  0  0
   58.4169   -6.6021   -1.9688 C   0  0  0  0  0  0  0  0  0  0  0  0
  1  2  2  0  0  0
  2  3  2  0  0  0
  2  4  1  0  0  0
  4  5  1  0  0  0
  5  6  2  0  0  0
  6 15  1  0  0  0
 15 16  1  0  0  0
 16 17  1  0  0  0
 17 18  1  0  0  0
 18 19  1  0  0  0
 19 20  1  0  0  0
 20 21  1  0  0  0
 21 22  1  0  0  0
  5  7  1  0  0  0
  7  8  1  0  0  0
  8  9  1  0  0  0
  9 10  1  0  0  0
 10 11  1  0  0  0
 11 12  1  0  0  0
 12 13  1  0  0  0
 13  2  1  0  0  0
 22 15  1  0  0  0
 13  8  1  0  0  0
  4 14  1  0  0  0
M  END
> <minimizedAffinity>
-2.53311

> <CNNscore>
0.4906117916

> <CNNaffinity>
4.7943105698

> <CNN_VS>
2.3521451950

> <CNNaffinity_variance>
0.8575456738

$$$$
[H]N1C(=NC2([H])C([H])([H])C([H])([H])C([H])([H])C([H])([H])C([H])([H])C([H])([H])C2([H])[H])O[C@@]2([H])C([H])([H])C([H])([H])C([H])([H])C([H])([H])[C@@]2([H])S1(=O)=O


 22 24  0  0  0  0  0  0  0  0999 V2000
   56.5088   -4.6757  -11.5755 O   0  0  0  0  0  0  0  0  0  0  0  0
   57.9305   -4.4719  -11.1538 S   0  0  0  0  0  0  0  0  0  0  0  0
   58.1053   -3.2089  -10.3575 O   0  0  0  0  0  0  0  0  0  0  0  0
   58.9943   -4.4323  -12.5382 N   0  0  0  0  0  0  0  0  0  0  0  0
   60.3089   -4.9209  -12.3801 C   0  0  0  0  0  0  0  0  0  0  0  0
   61.2374   -4.4778  -13.1326 N   0  0  0  0  0  0  0  0  0  0  0  0
   60.6022   -5.8605  -11.4341 O   0  0  0  0  0  0  0  0  0  0  0  0
   59.9370   -6.0820  -10.2418 C   0  0  0  0  0  0  0  0  0  0  0  0
   60.6923   -5.3066   -9.1519 C   0  0  0  0  0  0  0  0  0  0  0  0
   60.3764   -5.9778   -7.8455 C   0  0  0  0  0  0  0  0  0  0  0  0
   58.9481   -6.4094   -7.7938 C   0  0  0  0  0  0  0  0  0  0  0  0
   58.1060   -5.5397   -8.7294 C   0  0  0  0  0  0  0  0  0  0  0  0
   58.4918   -5.8210  -10.1669 C   0  0  0  0  0  0  0  0  0  0  0  0
   58.5979   -4.0561  -13.3920 H   0  0  0  0  0  0  0  0  0  0  0  0
   61.0423   -3.4918  -14.1568 C   0  0  0  0  0  0  0  0  0  0  0  0
   61.7159   -2.1798  -13.8337 C   0  0  0  0  0  0  0  0  0  0  0  0
   63.0825   -2.0282  -14.4106 C   0  0  0  0  0  0  0  0  0  0  0  0
   64.1035   -2.9811  -13.8887 C   0  0  0  0  0  0  0  0  0  0  0  0
   64.7978   -3.7548  -15.0034 C   0  0  0  0  0  0  0  0  0  0  0  0
   63.8442   -4.2611  -16.0363 C   0  0  0  0  0  0  0  0  0  0  0  0
   62.6864   -4.9380  -15.3773 C   0  0  0  0  0  0  0  0  0  0  0  0
   61.4769   -4.0397  -15.4951 C   0  0  0  0  0  0  0  0  0  0  0  0
  1  2  2  0  0  0
  2  3  2  0  0  0
  2  4  1  0  0  0
  4  5  1  0  0  0
  5  6  2  0  0  0
  6 15  1  0  0  0
 15 16  1  0  0  0
 16 17  1  0  0  0
 17 18  1  0  0  0
 18 19  1  0  0  0
 19 20  1  0  0  0
 20 21  1  0  0  0
 21 22  1  0  0  0
  5  7  1  0  0  0
  7  8  1  0  0  0
  8  9  1  0  0  0
  9 10  1  0  0  0
 10 11  1  0  0  0
 11 12  1  0  0  0
 12 13  1  0  0  0
 13  2  1  0  0  0
 22 15  1  0  0  0
 13  8  1  0  0  0
  4 14  1  0  0  0
M  END
> <minimizedAffinity>
4.97664

> <CNNscore>
0.4898000062

> <CNNaffinity>
4.4058003426

> <CNN_VS>
2.1579611301

> <CNNaffinity_variance>
0.4171317220

$$$$
[H]N1C(=NC2([H])C([H])([H])C([H])([H])C([H])([H])C([H])([H])C([H])([H])C([H])([H])C2([H])[H])O[C@@]2([H])C([H])([H])C([H])([H])C([H])([H])C([H])([H])[C@@]2([H])S1(=O)=O


 22 24  0  0  0  0  0  0  0  0999 V2000
   61.8414  -12.0134   -8.9495 O   0  0  0  0  0  0  0  0  0  0  0  0
   62.4821  -10.7920   -8.3678 S   0  0  0  0  0  0  0  0  0  0  0  0
   63.9707  -10.7840   -8.5774 O   0  0  0  0  0  0  0  0  0  0  0  0
   62.1397  -10.6586   -6.6605 N   0  0  0  0  0  0  0  0  0  0  0  0
   62.0356   -9.3663   -6.1027 C   0  0  0  0  0  0  0  0  0  0  0  0
   62.2914   -9.1946   -4.8659 N   0  0  0  0  0  0  0  0  0  0  0  0
   61.6655   -8.2970   -6.8667 O   0  0  0  0  0  0  0  0  0  0  0  0
   61.8445   -8.1416   -8.2294 C   0  0  0  0  0  0  0  0  0  0  0  0
   63.1421   -7.3434   -8.4267 C   0  0  0  0  0  0  0  0  0  0  0  0
   63.0414   -6.6794   -9.7705 C   0  0  0  0  0  0  0  0  0  0  0  0
   62.3992   -7.5829  -10.7706 C   0  0  0  0  0  0  0  0  0  0  0  0
   62.6034   -9.0429  -10.3615 C   0  0  0  0  0  0  0  0  0  0  0  0
   61.8207   -9.3289   -9.0966 C   0  0  0  0  0  0  0  0  0  0  0  0
   62.0309  -11.5333   -6.1599 H   0  0  0  0  0  0  0  0  0  0  0  0
   62.6886  -10.2448   -3.9724 C   0  0  0  0  0  0  0  0  0  0  0  0
   64.0404   -9.9940   -3.3484 C   0  0  0  0  0  0  0  0  0  0  0  0
   63.9917   -9.3288   -2.0148 C   0  0  0  0  0  0  0  0  0  0  0  0
   63.4429   -7.9425   -2.0142 C   0  0  0  0  0  0  0  0  0  0  0  0
   62.2879   -7.7767   -1.0333 C   0  0  0  0  0  0  0  0  0  0  0  0
   61.3118   -8.9063   -1.0934 C   0  0  0  0  0  0  0  0  0  0  0  0
   60.9436   -9.1908   -2.5134 C   0  0  0  0  0  0  0  0  0  0  0  0
   61.6172  -10.4766   -2.9339 C   0  0  0  0  0  0  0  0  0  0  0  0
  1  2  2  0  0  0
  2  3  2  0  0  0
  2  4  1  0  0  0
  4  5  1  0  0  0
  5  6  2  0  0  0
  6 15  1  0  0  0
 15 16  1  0  0  0
 16 17  1  0  0  0
 17 18  1  0  0  0
 18 19  1  0  0  0
 19 20  1  0  0  0
 20 21  1  0  0  0
 21 22  1  0  0  0
  5  7  1  0  0  0
  7  8  1  0  0  0
  8  9  1  0  0  0
  9 10  1  0  0  0
 10 11  1  0  0  0
 11 12  1  0  0  0
 12 13  1  0  0  0
 13  2  1  0  0  0
 22 15  1  0  0  0
 13  8  1  0  0  0
  4 14  1  0  0  0
M  END
> <minimizedAffinity>
-2.80770

> <CNNscore>
0.4825973809

> <CNNaffinity>
4.5019454956

> <CNN_VS>
2.1726272106

> <CNNaffinity_variance>
0.4793914855

$$$$
[H]N1C(=NC2([H])C([H])([H])C([H])([H])C([H])([H])C([H])([H])C([H])([H])C([H])([H])C2([H])[H])O[C@@]2([H])C([H])([H])C([H])([H])C([H])([H])C([H])([H])[C@@]2([H])S1(=O)=O


 22 24  0  0  0  0  0  0  0  0999 V2000
   63.5480   -8.3281   -9.1250 O   0  0  0  0  0  0  0  0  0  0  0  0
   62.7198   -9.4750   -8.6356 S   0  0  0  0  0  0  0  0  0  0  0  0
   61.2507   -9.2401   -8.8516 O   0  0  0  0  0  0  0  0  0  0  0  0
   63.0116   -9.7795   -6.9409 N   0  0  0  0  0  0  0  0  0  0  0  0
   62.9090  -11.1086   -6.4774 C   0  0  0  0  0  0  0  0  0  0  0  0
   62.6111  -11.3260   -5.2573 N   0  0  0  0  0  0  0  0  0  0  0  0
   63.1233  -12.1653   -7.3149 O   0  0  0  0  0  0  0  0  0  0  0  0
   62.9435  -12.1948   -8.6860 C   0  0  0  0  0  0  0  0  0  0  0  0
   61.5426  -12.7688   -8.9460 C   0  0  0  0  0  0  0  0  0  0  0  0
   61.5613  -13.3439  -10.3337 C   0  0  0  0  0  0  0  0  0  0  0  0
   62.3490  -12.4811  -11.2633 C   0  0  0  0  0  0  0  0  0  0  0  0
   62.3636  -11.0396  -10.7508 C   0  0  0  0  0  0  0  0  0  0  0  0
   63.1613  -10.9669   -9.4652 C   0  0  0  0  0  0  0  0  0  0  0  0
   63.2449   -8.9693   -6.3781 H   0  0  0  0  0  0  0  0  0  0  0  0
   62.3651  -10.2931   -4.2921 C   0  0  0  0  0  0  0  0  0  0  0  0
   60.8928  -10.0212   -4.0972 C   0  0  0  0  0  0  0  0  0  0  0  0
   60.2708  -10.7677   -2.9662 C   0  0  0  0  0  0  0  0  0  0  0  0
   60.2442  -12.2505   -3.1198 C   0  0  0  0  0  0  0  0  0  0  0  0
   60.8848  -12.9675   -1.9370 C   0  0  0  0  0  0  0  0  0  0  0  0
   62.1714  -12.3401   -1.5087 C   0  0  0  0  0  0  0  0  0  0  0  0
   63.0464  -12.1025   -2.6964 C   0  0  0  0  0  0  0  0  0  0  0  0
   63.0597  -10.6205   -2.9920 C   0  0  0  0  0  0  0  0  0  0  0  0
  1  2  2  0  0  0
  2  3  2  0  0  0
  2  4  1  0  0  0
  4  5  1  0  0  0
  5  6  2  0  0  0
  6 15  1  0  0  0
 15 16  1  0  0  0
 16 17  1  0  0  0
 17 18  1  0  0  0
 18 19  1  0  0  0
 19 20  1  0  0  0
 20 21  1  0  0  0
 21 22  1  0  0  0
  5  7  1  0  0  0
  7  8  1  0  0  0
  8  9  1  0  0  0
  9 10  1  0  0  0
 10 11  1  0  0  0
 11 12  1  0  0  0
 12 13  1  0  0  0
 13  2  1  0  0  0
 22 15  1  0  0  0
 13  8  1  0  0  0
  4 14  1  0  0  0
M  END
> <minimizedAffinity>
-3.12448

> <CNNscore>
0.4789346457

> <CNNaffinity>
4.5287828445

> <CNN_VS>
2.1689910889

> <CNNaffinity_variance>
0.3872745037

$$$$
[H]N1C(=NC2([H])C([H])([H])C([H])([H])C([H])([H])C([H])([H])C([H])([H])C([H])([H])C2([H])[H])O[C@@]2([H])C([H])([H])C([H])([H])C([H])([H])C([H])([H])[C@@]2([H])S1(=O)=O


 22 24  0  0  0  0  0  0  0  0999 V2000
   55.4092   -5.1686  -15.3737 O   0  0  0  0  0  0  0  0  0  0  0  0
   56.3359   -4.2266  -14.6706 S   0  0  0  0  0  0  0  0  0  0  0  0
   55.7606   -2.8412  -14.5713 O   0  0  0  0  0  0  0  0  0  0  0  0
   57.8829   -4.1518  -15.4775 N   0  0  0  0  0  0  0  0  0  0  0  0
   59.0318   -3.9198  -14.6912 C   0  0  0  0  0  0  0  0  0  0  0  0
   60.0527   -3.3693  -15.2197 N   0  0  0  0  0  0  0  0  0  0  0  0
   59.0673   -4.2753  -13.3735 O   0  0  0  0  0  0  0  0  0  0  0  0
   57.9938   -4.3836  -12.5080 C   0  0  0  0  0  0  0  0  0  0  0  0
   57.8896   -3.0525  -11.7483 C   0  0  0  0  0  0  0  0  0  0  0  0
   57.1714   -3.3439  -10.4614 C   0  0  0  0  0  0  0  0  0  0  0  0
   56.0703   -4.3301  -10.6709 C   0  0  0  0  0  0  0  0  0  0  0  0
   55.5909   -4.2763  -12.1227 C   0  0  0  0  0  0  0  0  0  0  0  0
   56.6836   -4.7911  -13.0367 C   0  0  0  0  0  0  0  0  0  0  0  0
   57.8663   -4.2845  -16.4823 H   0  0  0  0  0  0  0  0  0  0  0  0
   60.1247   -2.9556  -16.5919 C   0  0  0  0  0  0  0  0  0  0  0  0
   61.2147   -1.9393  -16.8340 C   0  0  0  0  0  0  0  0  0  0  0  0
   62.5115   -2.5199  -17.2862 C   0  0  0  0  0  0  0  0  0  0  0  0
   63.1934   -3.4031  -16.2973 C   0  0  0  0  0  0  0  0  0  0  0  0
   63.5146   -4.7777  -16.8723 C   0  0  0  0  0  0  0  0  0  0  0  0
   62.3787   -5.3588  -17.6499 C   0  0  0  0  0  0  0  0  0  0  0  0
   61.1104   -5.2439  -16.8682 C   0  0  0  0  0  0  0  0  0  0  0  0
   60.2608   -4.1606  -17.4915 C   0  0  0  0  0  0  0  0  0  0  0  0
  1  2  2  0  0  0
  2  3  2  0  0  0
  2  4  1  0  0  0
  4  5  1  0  0  0
  5  6  2  0  0  0
  6 15  1  0  0  0
 15 16  1  0  0  0
 16 17  1  0  0  0
 17 18  1  0  0  0
 18 19  1  0  0  0
 19 20  1  0  0  0
 20 21  1  0  0  0
 21 22  1  0  0  0
  5  7  1  0  0  0
  7  8  1  0  0  0
  8  9  1  0  0  0
  9 10  1  0  0  0
 10 11  1  0  0  0
 11 12  1  0  0  0
 12 13  1  0  0  0
 13  2  1  0  0  0
 22 15  1  0  0  0
 13  8  1  0  0  0
  4 14  1  0  0  0
M  END
> <minimizedAffinity>
0.05203

> <CNNscore>
0.4387466908

> <CNNaffinity>
4.3909816742

> <CNN_VS>
1.9265286922

> <CNNaffinity_variance>
0.2880604565

$$$$
[H]C(=NN([H])C(=S)N([H])C([H])([H])c1c([H])c([H])c(OC([H])(C([H])([H])[H])C([H])([H])[H])c([H])c1[H])c1c([H])c([H])c([N+](=O)[O-])c([H])c1[H]


 28 29  0  0  0  0  0  0  0  0999 V2000
   54.6504   -3.5896   -8.9041 C   0  0  0  0  0  0  0  0  0  0  0  0
   55.1136   -3.8184   -7.3618 S   0  0  0  0  0  0  0  0  0  0  0  0
   55.6169   -3.2763   -9.8786 N   0  0  0  0  0  0  0  0  0  0  0  0
   56.0106   -2.3191   -9.9445 H   0  0  0  0  0  0  0  0  0  0  0  0
   56.0742   -4.2876  -10.8021 C   0  0  0  0  0  0  0  0  0  0  0  0
   59.9370   -5.8256   -9.7387 C   0  0  0  0  0  0  0  0  0  0  0  0
   59.6661   -5.3427  -11.0196 C   0  0  0  0  0  0  0  0  0  0  0  0
   58.4219   -4.8533  -11.3425 C   0  0  0  0  0  0  0  0  0  0  0  0
   57.4015   -4.8220  -10.4177 C   0  0  0  0  0  0  0  0  0  0  0  0
   57.7026   -5.3045   -9.1684 C   0  0  0  0  0  0  0  0  0  0  0  0
   58.9495   -5.8063   -8.8080 C   0  0  0  0  0  0  0  0  0  0  0  0
   61.1931   -6.3031   -9.4658 O   0  0  0  0  0  0  0  0  0  0  0  0
   61.6719   -8.5771   -8.7867 C   0  0  0  0  0  0  0  0  0  0  0  0
   61.7343   -7.5070   -9.8758 C   0  0  0  0  0  0  0  0  0  0  0  0
   63.2134   -7.3104  -10.2121 C   0  0  0  0  0  0  0  0  0  0  0  0
   53.2788   -3.7034   -9.2747 N   0  0  0  0  0  0  0  0  0  0  0  0
   52.8655   -4.6392   -9.5584 H   0  0  0  0  0  0  0  0  0  0  0  0
   52.4477   -2.6321   -9.2840 N   0  0  0  0  0  0  0  0  0  0  0  0
   51.5170   -2.2141   -8.6029 C   0  0  0  0  0  0  0  0  0  0  0  0
   50.9395   -2.8109   -7.4229 C   0  0  0  0  0  0  0  0  0  0  0  0
   49.8715   -2.3049   -6.7188 C   0  0  0  0  0  0  0  0  0  0  0  0
   49.3534   -2.9243   -5.5833 C   0  0  0  0  0  0  0  0  0  0  0  0
   49.8943   -4.0935   -5.1016 C   0  0  0  0  0  0  0  0  0  0  0  0
   50.9635   -4.6238   -5.7846 C   0  0  0  0  0  0  0  0  0  0  0  0
   51.4638   -4.0060   -6.8992 C   0  0  0  0  0  0  0  0  0  0  0  0
   49.3562   -4.7219   -3.9361 N   0  0  0  0  0  0  0  0  0  0  0  0
   48.1710   -4.5032   -3.6222 O   0  0  0  0  0  0  0  0  0  0  0  0
   50.1890   -5.5420   -3.2191 O   0  0  0  0  0  0  0  0  0  0  0  0
 13 14  1  0  0  0
 14 15  1  0  0  0
 14 12  1  0  0  0
 12  6  1  0  0  0
  6  7  2  0  0  0
  7  8  1  0  0  0
  8  9  2  0  0  0
  9  5  1  0  0  0
  5  3  1  0  0  0
  3  1  1  0  0  0
  1  2  2  0  0  0
  1 16  1  0  0  0
 16 18  1  0  0  0
 18 19  2  0  0  0
 19 20  1  0  0  0
 20 21  2  0  0  0
 21 22  1  0  0  0
 22 23  2  0  0  0
 23 26  1  0  0  0
 26 27  2  0  0  0
 26 28  1  0  0  0
 23 24  1  0  0  0
 24 25  2  0  0  0
  9 10  1  0  0  0
 10 11  2  0  0  0
 11  6  1  0  0  0
 25 20  1  0  0  0
  3  4  1  0  0  0
 16 17  1  0  0  0
M  CHG 1  26   1
M  CHG 1  28  -1
M  END
> <minimizedAffinity>
-7.73353

> <CNNscore>
0.8139165044

> <CNNaffinity>
6.3914041519

> <CNN_VS>
5.2020692825

> <CNNaffinity_variance>
0.0468032733

$$$$
[H]C(=NN([H])C(=S)N([H])C([H])([H])c1c([H])c([H])c(OC([H])(C([H])([H])[H])C([H])([H])[H])c([H])c1[H])c1c([H])c([H])c([N+](=O)[O-])c([H])c1[H]


 28 29  0  0  0  0  0  0  0  0999 V2000
   54.8162   -4.1235   -8.9744 C   0  0  0  0  0  0  0  0  0  0  0  0
   55.4527   -3.3731   -7.6792 S   0  0  0  0  0  0  0  0  0  0  0  0
   55.6681   -4.7792   -9.8832 N   0  0  0  0  0  0  0  0  0  0  0  0
   55.3599   -5.6423  -10.3688 H   0  0  0  0  0  0  0  0  0  0  0  0
   56.9869   -4.2565  -10.1521 C   0  0  0  0  0  0  0  0  0  0  0  0
   57.7377   -3.7846  -14.3511 C   0  0  0  0  0  0  0  0  0  0  0  0
   58.7659   -3.7224  -13.4097 C   0  0  0  0  0  0  0  0  0  0  0  0
   58.5066   -3.8759  -12.0678 C   0  0  0  0  0  0  0  0  0  0  0  0
   57.2279   -4.0959  -11.6052 C   0  0  0  0  0  0  0  0  0  0  0  0
   56.2412   -4.1513  -12.5579 C   0  0  0  0  0  0  0  0  0  0  0  0
   56.4682   -4.0003  -13.9225 C   0  0  0  0  0  0  0  0  0  0  0  0
   58.0471   -3.6255  -15.6774 O   0  0  0  0  0  0  0  0  0  0  0  0
   58.7811   -1.6889  -16.9315 C   0  0  0  0  0  0  0  0  0  0  0  0
   59.1506   -2.9811  -16.2042 C   0  0  0  0  0  0  0  0  0  0  0  0
   59.8232   -3.8875  -17.2364 C   0  0  0  0  0  0  0  0  0  0  0  0
   53.4080   -4.1220   -9.1949 N   0  0  0  0  0  0  0  0  0  0  0  0
   52.8766   -5.0298   -9.3381 H   0  0  0  0  0  0  0  0  0  0  0  0
   52.6900   -2.9725   -9.2338 N   0  0  0  0  0  0  0  0  0  0  0  0
   51.7910   -2.4550   -8.5791 C   0  0  0  0  0  0  0  0  0  0  0  0
   51.1290   -2.9770   -7.4079 C   0  0  0  0  0  0  0  0  0  0  0  0
   51.5112   -4.1024   -6.7153 C   0  0  0  0  0  0  0  0  0  0  0  0
   50.8337   -4.5622   -5.5879 C   0  0  0  0  0  0  0  0  0  0  0  0
   49.7291   -3.9015   -5.1033 C   0  0  0  0  0  0  0  0  0  0  0  0
   49.3227   -2.7725   -5.7750 C   0  0  0  0  0  0  0  0  0  0  0  0
   49.9966   -2.3304   -6.8816 C   0  0  0  0  0  0  0  0  0  0  0  0
   49.0403   -4.3805   -3.9461 N   0  0  0  0  0  0  0  0  0  0  0  0
   47.9180   -3.9150   -3.6729 O   0  0  0  0  0  0  0  0  0  0  0  0
   49.6648   -5.3400   -3.1914 O   0  0  0  0  0  0  0  0  0  0  0  0
 13 14  1  0  0  0
 14 15  1  0  0  0
 14 12  1  0  0  0
 12  6  1  0  0  0
  6  7  2  0  0  0
  7  8  1  0  0  0
  8  9  2  0  0  0
  9  5  1  0  0  0
  5  3  1  0  0  0
  3  1  1  0  0  0
  1  2  2  0  0  0
  1 16  1  0  0  0
 16 18  1  0  0  0
 18 19  2  0  0  0
 19 20  1  0  0  0
 20 21  2  0  0  0
 21 22  1  0  0  0
 22 23  2  0  0  0
 23 26  1  0  0  0
 26 27  2  0  0  0
 26 28  1  0  0  0
 23 24  1  0  0  0
 24 25  2  0  0  0
  9 10  1  0  0  0
 10 11  2  0  0  0
 11  6  1  0  0  0
 25 20  1  0  0  0
  3  4  1  0  0  0
 16 17  1  0  0  0
M  CHG 1  26   1
M  CHG 1  28  -1
M  END
> <minimizedAffinity>
-8.07919

> <CNNscore>
0.7950172424

> <CNNaffinity>
6.4731507301

> <CNN_VS>
5.1462664604

> <CNNaffinity_variance>
0.1112393588

$$$$
[H]C(=NN([H])C(=S)N([H])C([H])([H])c1c([H])c([H])c(OC([H])(C([H])([H])[H])C([H])([H])[H])c([H])c1[H])c1c([H])c([H])c([N+](=O)[O-])c([H])c1[H]


 28 29  0  0  0  0  0  0  0  0999 V2000
   55.5272   -3.4142   -8.4607 C   0  0  0  0  0  0  0  0  0  0  0  0
   55.9745   -4.1690   -9.8304 S   0  0  0  0  0  0  0  0  0  0  0  0
   56.1159   -3.7902   -7.2385 N   0  0  0  0  0  0  0  0  0  0  0  0
   56.5208   -3.0762   -6.6046 H   0  0  0  0  0  0  0  0  0  0  0  0
   56.1636   -5.1802   -6.8503 C   0  0  0  0  0  0  0  0  0  0  0  0
   53.8938   -5.9344   -3.2870 C   0  0  0  0  0  0  0  0  0  0  0  0
   53.5083   -6.4484   -4.5258 C   0  0  0  0  0  0  0  0  0  0  0  0
   54.2482   -6.1963   -5.6574 C   0  0  0  0  0  0  0  0  0  0  0  0
   55.3922   -5.4304   -5.6102 C   0  0  0  0  0  0  0  0  0  0  0  0
   55.7420   -4.9411   -4.3764 C   0  0  0  0  0  0  0  0  0  0  0  0
   55.0171   -5.1765   -3.2121 C   0  0  0  0  0  0  0  0  0  0  0  0
   53.1229   -6.2140   -2.1880 O   0  0  0  0  0  0  0  0  0  0  0  0
   51.1037   -7.2208   -1.3101 C   0  0  0  0  0  0  0  0  0  0  0  0
   52.5059   -7.4134   -1.8862 C   0  0  0  0  0  0  0  0  0  0  0  0
   53.3198   -8.1490   -0.8204 C   0  0  0  0  0  0  0  0  0  0  0  0
   54.5475   -2.3793   -8.4888 N   0  0  0  0  0  0  0  0  0  0  0  0
   54.6373   -1.5250   -7.8650 H   0  0  0  0  0  0  0  0  0  0  0  0
   53.4654   -2.4388   -9.3037 N   0  0  0  0  0  0  0  0  0  0  0  0
   52.2689   -2.6830   -9.1879 C   0  0  0  0  0  0  0  0  0  0  0  0
   51.5431   -3.0293   -7.9897 C   0  0  0  0  0  0  0  0  0  0  0  0
   51.7974   -4.1234   -7.1957 C   0  0  0  0  0  0  0  0  0  0  0  0
   51.0631   -4.4102   -6.0468 C   0  0  0  0  0  0  0  0  0  0  0  0
   50.0287   -3.5987   -5.6428 C   0  0  0  0  0  0  0  0  0  0  0  0
   49.7505   -2.4967   -6.4168 C   0  0  0  0  0  0  0  0  0  0  0  0
   50.4792   -2.2253   -7.5436 C   0  0  0  0  0  0  0  0  0  0  0  0
   49.2809   -3.9008   -4.4628 N   0  0  0  0  0  0  0  0  0  0  0  0
   49.5784   -4.9117   -3.7989 O   0  0  0  0  0  0  0  0  0  0  0  0
   48.2628   -3.0470   -4.1242 O   0  0  0  0  0  0  0  0  0  0  0  0
 13 14  1  0  0  0
 14 15  1  0  0  0
 14 12  1  0  0  0
 12  6  1  0  0  0
  6  7  2  0  0  0
  7  8  1  0  0  0
  8  9  2  0  0  0
  9  5  1  0  0  0
  5  3  1  0  0  0
  3  1  1  0  0  0
  1  2  2  0  0  0
  1 16  1  0  0  0
 16 18  1  0  0  0
 18 19  2  0  0  0
 19 20  1  0  0  0
 20 21  2  0  0  0
 21 22  1  0  0  0
 22 23  2  0  0  0
 23 26  1  0  0  0
 26 27  2  0  0  0
 26 28  1  0  0  0
 23 24  1  0  0  0
 24 25  2  0  0  0
  9 10  1  0  0  0
 10 11  2  0  0  0
 11  6  1  0  0  0
 25 20  1  0  0  0
  3  4  1  0  0  0
 16 17  1  0  0  0
M  CHG 1  26   1
M  CHG 1  28  -1
M  END
> <minimizedAffinity>
-8.45969

> <CNNscore>
0.7043433189

> <CNNaffinity>
6.8608045578

> <CNN_VS>
4.8323616982

> <CNNaffinity_variance>
0.0883852541

$$$$
[H]C(=NN([H])C(=S)N([H])C([H])([H])c1c([H])c([H])c(OC([H])(C([H])([H])[H])C([H])([H])[H])c([H])c1[H])c1c([H])c([H])c([N+](=O)[O-])c([H])c1[H]


 28 29  0  0  0  0  0  0  0  0999 V2000
   54.8883   -4.1941   -8.7295 C   0  0  0  0  0  0  0  0  0  0  0  0
   55.9831   -4.1647   -9.9321 S   0  0  0  0  0  0  0  0  0  0  0  0
   55.3283   -4.2240   -7.3926 N   0  0  0  0  0  0  0  0  0  0  0  0
   55.1239   -3.4355   -6.7507 H   0  0  0  0  0  0  0  0  0  0  0  0
   56.0726   -5.3573   -6.8961 C   0  0  0  0  0  0  0  0  0  0  0  0
   54.2224   -7.1593   -3.4687 C   0  0  0  0  0  0  0  0  0  0  0  0
   55.3118   -7.7498   -4.1106 C   0  0  0  0  0  0  0  0  0  0  0  0
   55.8922   -7.1577   -5.2079 C   0  0  0  0  0  0  0  0  0  0  0  0
   55.4217   -5.9652   -5.7120 C   0  0  0  0  0  0  0  0  0  0  0  0
   54.3497   -5.4125   -5.0567 C   0  0  0  0  0  0  0  0  0  0  0  0
   53.7388   -5.9840   -3.9446 C   0  0  0  0  0  0  0  0  0  0  0  0
   53.6788   -7.7887   -2.3784 O   0  0  0  0  0  0  0  0  0  0  0  0
   52.8978   -7.2855   -0.1427 C   0  0  0  0  0  0  0  0  0  0  0  0
   52.5880   -7.3765   -1.6363 C   0  0  0  0  0  0  0  0  0  0  0  0
   51.4570   -8.3950   -1.7876 C   0  0  0  0  0  0  0  0  0  0  0  0
   53.4925   -4.1899   -9.0182 N   0  0  0  0  0  0  0  0  0  0  0  0
   52.9479   -5.0979   -9.0950 H   0  0  0  0  0  0  0  0  0  0  0  0
   52.8035   -3.0377   -9.2083 N   0  0  0  0  0  0  0  0  0  0  0  0
   51.8689   -2.4534   -8.6701 C   0  0  0  0  0  0  0  0  0  0  0  0
   51.1101   -2.8641   -7.5135 C   0  0  0  0  0  0  0  0  0  0  0  0
   49.9955   -2.2218   -7.0261 C   0  0  0  0  0  0  0  0  0  0  0  0
   49.2998   -2.6634   -5.9025 C   0  0  0  0  0  0  0  0  0  0  0  0
   49.7007   -3.7837   -5.2127 C   0  0  0  0  0  0  0  0  0  0  0  0
   50.8123   -4.4473   -5.6761 C   0  0  0  0  0  0  0  0  0  0  0  0
   51.4876   -4.0038   -6.7814 C   0  0  0  0  0  0  0  0  0  0  0  0
   48.9808   -4.2293   -4.0611 N   0  0  0  0  0  0  0  0  0  0  0  0
   47.9031   -3.6777   -3.7691 O   0  0  0  0  0  0  0  0  0  0  0  0
   49.5269   -5.2545   -3.3325 O   0  0  0  0  0  0  0  0  0  0  0  0
 13 14  1  0  0  0
 14 15  1  0  0  0
 14 12  1  0  0  0
 12  6  1  0  0  0
  6  7  2  0  0  0
  7  8  1  0  0  0
  8  9  2  0  0  0
  9  5  1  0  0  0
  5  3  1  0  0  0
  3  1  1  0  0  0
  1  2  2  0  0  0
  1 16  1  0  0  0
 16 18  1  0  0  0
 18 19  2  0  0  0
 19 20  1  0  0  0
 20 21  2  0  0  0
 21 22  1  0  0  0
 22 23  2  0  0  0
 23 26  1  0  0  0
 26 27  2  0  0  0
 26 28  1  0  0  0
 23 24  1  0  0  0
 24 25  2  0  0  0
  9 10  1  0  0  0
 10 11  2  0  0  0
 11  6  1  0  0  0
 25 20  1  0  0  0
  3  4  1  0  0  0
 16 17  1  0  0  0
M  CHG 1  26   1
M  CHG 1  28  -1
M  END
> <minimizedAffinity>
-8.35382

> <CNNscore>
0.6875462532

> <CNNaffinity>
6.9831466675

> <CNN_VS>
4.8012361526

> <CNNaffinity_variance>
0.0959978402

$$$$
[H]C(=NN([H])C(=S)N([H])C([H])([H])c1c([H])c([H])c(OC([H])(C([H])([H])[H])C([H])([H])[H])c([H])c1[H])c1c([H])c([H])c([N+](=O)[O-])c([H])c1[H]


 28 29  0  0  0  0  0  0  0  0999 V2000
   54.4642   -3.5300   -8.8161 C   0  0  0  0  0  0  0  0  0  0  0  0
   53.0347   -3.2153   -9.5256 S   0  0  0  0  0  0  0  0  0  0  0  0
   55.6575   -3.2612   -9.5129 N   0  0  0  0  0  0  0  0  0  0  0  0
   56.2081   -2.4063   -9.3089 H   0  0  0  0  0  0  0  0  0  0  0  0
   56.1320   -4.1759  -10.5244 C   0  0  0  0  0  0  0  0  0  0  0  0
   59.9397   -5.8813   -9.5189 C   0  0  0  0  0  0  0  0  0  0  0  0
   59.6423   -5.4623  -10.8164 C   0  0  0  0  0  0  0  0  0  0  0  0
   58.4164   -4.9179  -11.1203 C   0  0  0  0  0  0  0  0  0  0  0  0
   57.4409   -4.7666  -10.1595 C   0  0  0  0  0  0  0  0  0  0  0  0
   57.7671   -5.1890   -8.8948 C   0  0  0  0  0  0  0  0  0  0  0  0
   58.9966   -5.7437   -8.5528 C   0  0  0  0  0  0  0  0  0  0  0  0
   61.1761   -6.4177   -9.2661 O   0  0  0  0  0  0  0  0  0  0  0  0
   62.9498   -7.3405   -7.9008 C   0  0  0  0  0  0  0  0  0  0  0  0
   61.4869   -7.3949   -8.3394 C   0  0  0  0  0  0  0  0  0  0  0  0
   61.2678   -8.7742   -8.9630 C   0  0  0  0  0  0  0  0  0  0  0  0
   54.5172   -4.0738   -7.4997 N   0  0  0  0  0  0  0  0  0  0  0  0
   54.8255   -3.4800   -6.6754 H   0  0  0  0  0  0  0  0  0  0  0  0
   54.1819   -5.3622   -7.2424 N   0  0  0  0  0  0  0  0  0  0  0  0
   53.2666   -5.9547   -6.6803 C   0  0  0  0  0  0  0  0  0  0  0  0
   52.1076   -5.3912   -6.0312 C   0  0  0  0  0  0  0  0  0  0  0  0
   51.3302   -4.3750   -6.5365 C   0  0  0  0  0  0  0  0  0  0  0  0
   50.2193   -3.8683   -5.8653 C   0  0  0  0  0  0  0  0  0  0  0  0
   49.8384   -4.3683   -4.6419 C   0  0  0  0  0  0  0  0  0  0  0  0
   50.5965   -5.3852   -4.1109 C   0  0  0  0  0  0  0  0  0  0  0  0
   51.6859   -5.8749   -4.7800 C   0  0  0  0  0  0  0  0  0  0  0  0
   48.6973   -3.8423   -3.9607 N   0  0  0  0  0  0  0  0  0  0  0  0
   48.0839   -4.5684   -3.1559 O   0  0  0  0  0  0  0  0  0  0  0  0
   48.3378   -2.5482   -4.2368 O   0  0  0  0  0  0  0  0  0  0  0  0
 13 14  1  0  0  0
 14 15  1  0  0  0
 14 12  1  0  0  0
 12  6  1  0  0  0
  6  7  2  0  0  0
  7  8  1  0  0  0
  8  9  2  0  0  0
  9  5  1  0  0  0
  5  3  1  0  0  0
  3  1  1  0  0  0
  1  2  2  0  0  0
  1 16  1  0  0  0
 16 18  1  0  0  0
 18 19  2  0  0  0
 19 20  1  0  0  0
 20 21  2  0  0  0
 21 22  1  0  0  0
 22 23  2  0  0  0
 23 26  1  0  0  0
 26 27  2  0  0  0
 26 28  1  0  0  0
 23 24  1  0  0  0
 24 25  2  0  0  0
  9 10  1  0  0  0
 10 11  2  0  0  0
 11  6  1  0  0  0
 25 20  1  0  0  0
  3  4  1  0  0  0
 16 17  1  0  0  0
M  CHG 1  26   1
M  CHG 1  28  -1
M  END
> <minimizedAffinity>
-7.42482

> <CNNscore>
0.6525959969

> <CNNaffinity>
6.2293577194

> <CNN_VS>
4.0652537346

> <CNNaffinity_variance>
0.0618726127

$$$$
[H]C(=NN([H])C(=S)N([H])C([H])([H])c1c([H])c([H])c(OC([H])(C([H])([H])[H])C([H])([H])[H])c([H])c1[H])c1c([H])c([H])c([N+](=O)[O-])c([H])c1[H]


 28 29  0  0  0  0  0  0  0  0999 V2000
   54.1695   -3.6324   -8.9485 C   0  0  0  0  0  0  0  0  0  0  0  0
   52.9127   -2.6011   -8.9997 S   0  0  0  0  0  0  0  0  0  0  0  0
   54.8723   -3.9274  -10.1320 N   0  0  0  0  0  0  0  0  0  0  0  0
   54.3680   -4.0518  -11.0297 H   0  0  0  0  0  0  0  0  0  0  0  0
   56.3098   -4.0611  -10.1112 C   0  0  0  0  0  0  0  0  0  0  0  0
   58.0404   -3.7724  -14.0278 C   0  0  0  0  0  0  0  0  0  0  0  0
   58.8261   -3.9595  -12.8898 C   0  0  0  0  0  0  0  0  0  0  0  0
   58.2540   -4.0498  -11.6423 C   0  0  0  0  0  0  0  0  0  0  0  0
   56.8902   -3.9593  -11.4707 C   0  0  0  0  0  0  0  0  0  0  0  0
   56.1480   -3.7754  -12.6107 C   0  0  0  0  0  0  0  0  0  0  0  0
   56.6937   -3.6799  -13.8872 C   0  0  0  0  0  0  0  0  0  0  0  0
   58.6580   -3.6887  -15.2492 O   0  0  0  0  0  0  0  0  0  0  0  0
   59.8090   -2.6939  -17.1326 C   0  0  0  0  0  0  0  0  0  0  0  0
   59.6641   -2.8150  -15.6162 C   0  0  0  0  0  0  0  0  0  0  0  0
   61.0032   -3.3321  -15.0883 C   0  0  0  0  0  0  0  0  0  0  0  0
   54.5627   -4.2371   -7.7191 N   0  0  0  0  0  0  0  0  0  0  0  0
   55.1380   -3.7008   -7.0061 H   0  0  0  0  0  0  0  0  0  0  0  0
   54.2254   -5.5130   -7.4080 N   0  0  0  0  0  0  0  0  0  0  0  0
   53.3220   -6.0782   -6.8004 C   0  0  0  0  0  0  0  0  0  0  0  0
   52.1857   -5.4831   -6.1395 C   0  0  0  0  0  0  0  0  0  0  0  0
   51.2901   -4.6182   -6.7246 C   0  0  0  0  0  0  0  0  0  0  0  0
   50.2079   -4.0722   -6.0375 C   0  0  0  0  0  0  0  0  0  0  0  0
   49.9776   -4.3767   -4.7162 C   0  0  0  0  0  0  0  0  0  0  0  0
   50.8564   -5.2390   -4.1037 C   0  0  0  0  0  0  0  0  0  0  0  0
   51.9161   -5.7692   -4.7894 C   0  0  0  0  0  0  0  0  0  0  0  0
   48.8648   -3.8119   -4.0193 N   0  0  0  0  0  0  0  0  0  0  0  0
   48.5677   -2.6188   -4.2178 O   0  0  0  0  0  0  0  0  0  0  0  0
   48.1777   -4.6288   -3.1587 O   0  0  0  0  0  0  0  0  0  0  0  0
 13 14  1  0  0  0
 14 15  1  0  0  0
 14 12  1  0  0  0
 12  6  1  0  0  0
  6  7  2  0  0  0
  7  8  1  0  0  0
  8  9  2  0  0  0
  9  5  1  0  0  0
  5  3  1  0  0  0
  3  1  1  0  0  0
  1  2  2  0  0  0
  1 16  1  0  0  0
 16 18  1  0  0  0
 18 19  2  0  0  0
 19 20  1  0  0  0
 20 21  2  0  0  0
 21 22  1  0  0  0
 22 23  2  0  0  0
 23 26  1  0  0  0
 26 27  2  0  0  0
 26 28  1  0  0  0
 23 24  1  0  0  0
 24 25  2  0  0  0
  9 10  1  0  0  0
 10 11  2  0  0  0
 11  6  1  0  0  0
 25 20  1  0  0  0
  3  4  1  0  0  0
 16 17  1  0  0  0
M  CHG 1  26   1
M  CHG 1  28  -1
M  END
> <minimizedAffinity>
-7.82489

> <CNNscore>
0.6519980431

> <CNNaffinity>
6.3048710823

> <CNN_VS>
4.1107635498

> <CNNaffinity_variance>
0.1019083858

$$$$
[H]C(=NN([H])C(=S)N([H])C([H])([H])c1c([H])c([H])c(OC([H])(C([H])([H])[H])C([H])([H])[H])c([H])c1[H])c1c([H])c([H])c([N+](=O)[O-])c([H])c1[H]


 28 29  0  0  0  0  0  0  0  0999 V2000
   54.9930   -5.3066   -6.7040 C   0  0  0  0  0  0  0  0  0  0  0  0
   54.9652   -5.9655   -5.2171 S   0  0  0  0  0  0  0  0  0  0  0  0
   56.1235   -4.5766   -7.1174 N   0  0  0  0  0  0  0  0  0  0  0  0
   56.1657   -3.5485   -6.9876 H   0  0  0  0  0  0  0  0  0  0  0  0
   57.2429   -5.2525   -7.7295 C   0  0  0  0  0  0  0  0  0  0  0  0
   57.5847   -4.3929  -11.9202 C   0  0  0  0  0  0  0  0  0  0  0  0
   58.5651   -5.1125  -11.2359 C   0  0  0  0  0  0  0  0  0  0  0  0
   58.4387   -5.3787   -9.8925 C   0  0  0  0  0  0  0  0  0  0  0  0
   57.3445   -4.9468   -9.1757 C   0  0  0  0  0  0  0  0  0  0  0  0
   56.4000   -4.2424   -9.8799 C   0  0  0  0  0  0  0  0  0  0  0  0
   56.4960   -3.9555  -11.2382 C   0  0  0  0  0  0  0  0  0  0  0  0
   57.7565   -4.1533  -13.2594 O   0  0  0  0  0  0  0  0  0  0  0  0
   55.9978   -5.1615  -14.5831 C   0  0  0  0  0  0  0  0  0  0  0  0
   56.7701   -3.9015  -14.1943 C   0  0  0  0  0  0  0  0  0  0  0  0
   57.4102   -3.3672  -15.4765 C   0  0  0  0  0  0  0  0  0  0  0  0
   53.8856   -5.4623   -7.5878 N   0  0  0  0  0  0  0  0  0  0  0  0
   53.4413   -6.4136   -7.7445 H   0  0  0  0  0  0  0  0  0  0  0  0
   53.3555   -4.4134   -8.2641 N   0  0  0  0  0  0  0  0  0  0  0  0
   52.3848   -3.6722   -8.1500 C   0  0  0  0  0  0  0  0  0  0  0  0
   51.3693   -3.6869   -7.1249 C   0  0  0  0  0  0  0  0  0  0  0  0
   51.2321   -4.6548   -6.1570 C   0  0  0  0  0  0  0  0  0  0  0  0
   50.2305   -4.6189   -5.1891 C   0  0  0  0  0  0  0  0  0  0  0  0
   49.3127   -3.5951   -5.1531 C   0  0  0  0  0  0  0  0  0  0  0  0
   49.4242   -2.6124   -6.1085 C   0  0  0  0  0  0  0  0  0  0  0  0
   50.4128   -2.6585   -7.0544 C   0  0  0  0  0  0  0  0  0  0  0  0
   48.2886   -3.5666   -4.1565 N   0  0  0  0  0  0  0  0  0  0  0  0
   48.2973   -4.4245   -3.2538 O   0  0  0  0  0  0  0  0  0  0  0  0
   47.3404   -2.5808   -4.2532 O   0  0  0  0  0  0  0  0  0  0  0  0
 13 14  1  0  0  0
 14 15  1  0  0  0
 14 12  1  0  0  0
 12  6  1  0  0  0
  6  7  2  0  0  0
  7  8  1  0  0  0
  8  9  2  0  0  0
  9  5  1  0  0  0
  5  3  1  0  0  0
  3  1  1  0  0  0
  1  2  2  0  0  0
  1 16  1  0  0  0
 16 18  1  0  0  0
 18 19  2  0  0  0
 19 20  1  0  0  0
 20 21  2  0  0  0
 21 22  1  0  0  0
 22 23  2  0  0  0
 23 26  1  0  0  0
 26 27  2  0  0  0
 26 28  1  0  0  0
 23 24  1  0  0  0
 24 25  2  0  0  0
  9 10  1  0  0  0
 10 11  2  0  0  0
 11  6  1  0  0  0
 25 20  1  0  0  0
  3  4  1  0  0  0
 16 17  1  0  0  0
M  CHG 1  26   1
M  CHG 1  28  -1
M  END
> <minimizedAffinity>
-9.17438

> <CNNscore>
0.5265984535

> <CNNaffinity>
6.4528856277

> <CNN_VS>
3.3980796337

> <CNNaffinity_variance>
0.0236375332

$$$$
[H]C(=NN([H])C(=S)N([H])C([H])([H])c1c([H])c([H])c(OC([H])(C([H])([H])[H])C([H])([H])[H])c([H])c1[H])c1c([H])c([H])c([N+](=O)[O-])c([H])c1[H]


 28 29  0  0  0  0  0  0  0  0999 V2000
   54.7078   -4.1442   -8.9810 C   0  0  0  0  0  0  0  0  0  0  0  0
   55.9066   -4.1624  -10.0803 S   0  0  0  0  0  0  0  0  0  0  0  0
   55.0206   -4.2552   -7.6130 N   0  0  0  0  0  0  0  0  0  0  0  0
   55.0606   -3.4128   -7.0094 H   0  0  0  0  0  0  0  0  0  0  0  0
   55.2906   -5.5485   -7.0304 C   0  0  0  0  0  0  0  0  0  0  0  0
   54.4643   -5.6170   -2.8196 C   0  0  0  0  0  0  0  0  0  0  0  0
   53.6568   -6.2900   -3.7375 C   0  0  0  0  0  0  0  0  0  0  0  0
   53.9370   -6.2569   -5.0836 C   0  0  0  0  0  0  0  0  0  0  0  0
   55.0203   -5.5614   -5.5736 C   0  0  0  0  0  0  0  0  0  0  0  0
   55.7928   -4.9114   -4.6435 C   0  0  0  0  0  0  0  0  0  0  0  0
   55.5384   -4.9239   -3.2755 C   0  0  0  0  0  0  0  0  0  0  0  0
   54.1434   -5.6803   -1.4880 O   0  0  0  0  0  0  0  0  0  0  0  0
   56.0356   -5.2916   -0.0286 C   0  0  0  0  0  0  0  0  0  0  0  0
   54.9073   -6.2221   -0.4715 C   0  0  0  0  0  0  0  0  0  0  0  0
   55.5696   -7.5094   -0.9649 C   0  0  0  0  0  0  0  0  0  0  0  0
   53.3487   -4.0172   -9.3911 N   0  0  0  0  0  0  0  0  0  0  0  0
   52.7985   -4.8606   -9.7274 H   0  0  0  0  0  0  0  0  0  0  0  0
   52.7030   -2.8250   -9.3729 N   0  0  0  0  0  0  0  0  0  0  0  0
   51.8438   -2.2818   -8.6864 C   0  0  0  0  0  0  0  0  0  0  0  0
   51.1613   -2.8119   -7.5308 C   0  0  0  0  0  0  0  0  0  0  0  0
   51.5671   -3.9054   -6.8014 C   0  0  0  0  0  0  0  0  0  0  0  0
   50.8679   -4.3749   -5.6913 C   0  0  0  0  0  0  0  0  0  0  0  0
   49.7164   -3.7570   -5.2625 C   0  0  0  0  0  0  0  0  0  0  0  0
   49.2855   -2.6607   -5.9720 C   0  0  0  0  0  0  0  0  0  0  0  0
   49.9811   -2.2086   -7.0611 C   0  0  0  0  0  0  0  0  0  0  0  0
   49.0058   -4.2457   -4.1228 N   0  0  0  0  0  0  0  0  0  0  0  0
   47.9483   -3.6835   -3.7810 O   0  0  0  0  0  0  0  0  0  0  0  0
   49.5376   -5.3222   -3.4606 O   0  0  0  0  0  0  0  0  0  0  0  0
 13 14  1  0  0  0
 14 15  1  0  0  0
 14 12  1  0  0  0
 12  6  1  0  0  0
  6  7  2  0  0  0
  7  8  1  0  0  0
  8  9  2  0  0  0
  9  5  1  0  0  0
  5  3  1  0  0  0
  3  1  1  0  0  0
  1  2  2  0  0  0
  1 16  1  0  0  0
 16 18  1  0  0  0
 18 19  2  0  0  0
 19 20  1  0  0  0
 20 21  2  0  0  0
 21 22  1  0  0  0
 22 23  2  0  0  0
 23 26  1  0  0  0
 26 27  2  0  0  0
 26 28  1  0  0  0
 23 24  1  0  0  0
 24 25  2  0  0  0
  9 10  1  0  0  0
 10 11  2  0  0  0
 11  6  1  0  0  0
 25 20  1  0  0  0
  3  4  1  0  0  0
 16 17  1  0  0  0
M  CHG 1  26   1
M  CHG 1  28  -1
M  END
> <minimizedAffinity>
-8.39106

> <CNNscore>
0.4419639111

> <CNNaffinity>
6.6446838379

> <CNN_VS>
2.9367103577

> <CNNaffinity_variance>
0.0947375149

$$$$
[H]C(=NN([H])C(=S)N([H])C([H])([H])c1c([H])c([H])c(OC([H])(C([H])([H])[H])C([H])([H])[H])c([H])c1[H])c1c([H])c([H])c([N+](=O)[O-])c([H])c1[H]


 28 29  0  0  0  0  0  0  0  0999 V2000
   56.0846   -6.5545   -5.5157 C   0  0  0  0  0  0  0  0  0  0  0  0
   56.8464   -6.9963   -4.1481 S   0  0  0  0  0  0  0  0  0  0  0  0
   56.8331   -6.0350   -6.5889 N   0  0  0  0  0  0  0  0  0  0  0  0
   57.4889   -6.6395   -7.1181 H   0  0  0  0  0  0  0  0  0  0  0  0
   56.6968   -4.6484   -6.9678 C   0  0  0  0  0  0  0  0  0  0  0  0
   56.2636   -4.1717  -11.2108 C   0  0  0  0  0  0  0  0  0  0  0  0
   55.2534   -3.7992  -10.3230 C   0  0  0  0  0  0  0  0  0  0  0  0
   55.4098   -3.9593   -8.9660 C   0  0  0  0  0  0  0  0  0  0  0  0
   56.5644   -4.4910   -8.4351 C   0  0  0  0  0  0  0  0  0  0  0  0
   57.5368   -4.8463   -9.3365 C   0  0  0  0  0  0  0  0  0  0  0  0
   57.4117   -4.6982  -10.7145 C   0  0  0  0  0  0  0  0  0  0  0  0
   56.0598   -3.9921  -12.5549 O   0  0  0  0  0  0  0  0  0  0  0  0
   57.3943   -3.4756  -14.5078 C   0  0  0  0  0  0  0  0  0  0  0  0
   56.7944   -4.5397  -13.5896 C   0  0  0  0  0  0  0  0  0  0  0  0
   55.8802   -5.4038  -14.4597 C   0  0  0  0  0  0  0  0  0  0  0  0
   54.6707   -6.6890   -5.6351 N   0  0  0  0  0  0  0  0  0  0  0  0
   54.0643   -6.8611   -4.7808 H   0  0  0  0  0  0  0  0  0  0  0  0
   54.0416   -6.6066   -6.8334 N   0  0  0  0  0  0  0  0  0  0  0  0
   52.9816   -6.1603   -7.2600 C   0  0  0  0  0  0  0  0  0  0  0  0
   51.9344   -5.4958   -6.5223 C   0  0  0  0  0  0  0  0  0  0  0  0
   51.3457   -4.3045   -6.8780 C   0  0  0  0  0  0  0  0  0  0  0  0
   50.3360   -3.7067   -6.1267 C   0  0  0  0  0  0  0  0  0  0  0  0
   49.8698   -4.2888   -4.9711 C   0  0  0  0  0  0  0  0  0  0  0  0
   50.4394   -5.4809   -4.5895 C   0  0  0  0  0  0  0  0  0  0  0  0
   51.4308   -6.0587   -5.3362 C   0  0  0  0  0  0  0  0  0  0  0  0
   48.8338   -3.6683   -4.2067 N   0  0  0  0  0  0  0  0  0  0  0  0
   48.2621   -4.3243   -3.3156 O   0  0  0  0  0  0  0  0  0  0  0  0
   48.5238   -2.3659   -4.5031 O   0  0  0  0  0  0  0  0  0  0  0  0
 13 14  1  0  0  0
 14 15  1  0  0  0
 14 12  1  0  0  0
 12  6  1  0  0  0
  6  7  2  0  0  0
  7  8  1  0  0  0
  8  9  2  0  0  0
  9  5  1  0  0  0
  5  3  1  0  0  0
  3  1  1  0  0  0
  1  2  2  0  0  0
  1 16  1  0  0  0
 16 18  1  0  0  0
 18 19  2  0  0  0
 19 20  1  0  0  0
 20 21  2  0  0  0
 21 22  1  0  0  0
 22 23  2  0  0  0
 23 26  1  0  0  0
 26 27  2  0  0  0
 26 28  1  0  0  0
 23 24  1  0  0  0
 24 25  2  0  0  0
  9 10  1  0  0  0
 10 11  2  0  0  0
 11  6  1  0  0  0
 25 20  1  0  0  0
  3  4  1  0  0  0
 16 17  1  0  0  0
M  CHG 1  26   1
M  CHG 1  28  -1
M  END
> <minimizedAffinity>
-8.60672

> <CNNscore>
0.4179570079

> <CNNaffinity>
6.1871571541

> <CNN_VS>
2.5859656334

> <CNNaffinity_variance>
0.0362269655

$$$$
[H]c1nc(N([H])[H])c(C(=O)N([H])c2c([H])nc([H])c([H])c2N2C([H])([H])C([H])([H])C([H])(N([H])[H])C([H])([H])C2([H])[H])nc1-c1c([H])c([H])c(OC([H])([H])[H])c([H])c1[H]


 36 39  0  0  0  0  0  0  0  0999 V2000
   51.5982   -4.9770   -6.2365 C   0  0  0  0  0  0  0  0  0  0  0  0
   50.5516   -5.5520   -6.5938 O   0  0  0  0  0  0  0  0  0  0  0  0
   52.1934   -4.9910   -4.9675 N   0  0  0  0  0  0  0  0  0  0  0  0
   53.1049   -4.4385   -4.8955 H   0  0  0  0  0  0  0  0  0  0  0  0
   54.1706   -3.8854   -8.6867 C   0  0  0  0  0  0  0  0  0  0  0  0
   53.5335   -2.8242   -9.2706 C   0  0  0  0  0  0  0  0  0  0  0  0
   52.2753   -2.4476   -8.8868 N   0  0  0  0  0  0  0  0  0  0  0  0
   51.6414   -3.1375   -7.9075 C   0  0  0  0  0  0  0  0  0  0  0  0
   50.3252   -2.7721   -7.4819 N   0  0  0  0  0  0  0  0  0  0  0  0
   52.2600   -4.1958   -7.3158 C   0  0  0  0  0  0  0  0  0  0  0  0
   53.5128   -4.5450   -7.7207 N   0  0  0  0  0  0  0  0  0  0  0  0
   50.1710   -2.2151   -6.6174 H   0  0  0  0  0  0  0  0  0  0  0  0
   49.5221   -3.0676   -8.0431 H   0  0  0  0  0  0  0  0  0  0  0  0
   58.0739   -5.1281   -9.8893 C   0  0  0  0  0  0  0  0  0  0  0  0
   57.7025   -5.2269   -8.5712 C   0  0  0  0  0  0  0  0  0  0  0  0
   56.4430   -4.8217   -8.2039 C   0  0  0  0  0  0  0  0  0  0  0  0
   55.5021   -4.3145   -9.0627 C   0  0  0  0  0  0  0  0  0  0  0  0
   55.9115   -4.2263  -10.4012 C   0  0  0  0  0  0  0  0  0  0  0  0
   57.1690   -4.6233  -10.8097 C   0  0  0  0  0  0  0  0  0  0  0  0
   60.1448   -6.2417   -9.3544 C   0  0  0  0  0  0  0  0  0  0  0  0
   59.3381   -5.5342  -10.2619 O   0  0  0  0  0  0  0  0  0  0  0  0
   51.7626   -5.6502   -3.7978 C   0  0  0  0  0  0  0  0  0  0  0  0
   50.4688   -5.6346   -3.3717 C   0  0  0  0  0  0  0  0  0  0  0  0
   50.0729   -6.3084   -2.2774 N   0  0  0  0  0  0  0  0  0  0  0  0
   50.9302   -7.0315   -1.5478 C   0  0  0  0  0  0  0  0  0  0  0  0
   52.2474   -7.0851   -1.9268 C   0  0  0  0  0  0  0  0  0  0  0  0
   52.6765   -6.3922   -3.0580 C   0  0  0  0  0  0  0  0  0  0  0  0
   54.0445   -6.4244   -3.4140 N   0  0  0  0  0  0  0  0  0  0  0  0
   54.5800   -5.9450   -4.6563 C   0  0  0  0  0  0  0  0  0  0  0  0
   55.7617   -5.0415   -4.3898 C   0  0  0  0  0  0  0  0  0  0  0  0
   55.8370   -4.6855   -2.9392 C   0  0  0  0  0  0  0  0  0  0  0  0
   57.0607   -3.9166   -2.6735 N   0  0  0  0  0  0  0  0  0  0  0  0
   55.8919   -5.8652   -2.0070 C   0  0  0  0  0  0  0  0  0  0  0  0
   54.9917   -6.9783   -2.4563 C   0  0  0  0  0  0  0  0  0  0  0  0
   57.2353   -3.8795   -1.6645 H   0  0  0  0  0  0  0  0  0  0  0  0
   57.0365   -2.9944   -3.1524 H   0  0  0  0  0  0  0  0  0  0  0  0
 20 21  1  0  0  0
 21 14  1  0  0  0
 14 15  2  0  0  0
 15 16  1  0  0  0
 16 17  2  0  0  0
 17  5  1  0  0  0
  5  6  2  0  0  0
  6  7  1  0  0  0
  7  8  2  0  0  0
  8  9  1  0  0  0
  8 10  1  0  0  0
 10  1  1  0  0  0
  1  2  2  0  0  0
  1  3  1  0  0  0
  3 22  1  0  0  0
 22 23  2  0  0  0
 23 24  1  0  0  0
 24 25  2  0  0  0
 25 26  1  0  0  0
 26 27  2  0  0  0
 27 28  1  0  0  0
 28 29  1  0  0  0
 29 30  1  0  0  0
 30 31  1  0  0  0
 31 32  1  0  0  0
 31 33  1  0  0  0
 33 34  1  0  0  0
 10 11  2  0  0  0
 17 18  1  0  0  0
 18 19  2  0  0  0
 19 14  1  0  0  0
 11  5  1  0  0  0
 27 22  1  0  0  0
 34 28  1  0  0  0
  9 12  1  0  0  0
  9 13  1  0  0  0
  3  4  1  0  0  0
 32 35  1  0  0  0
 32 36  1  0  0  0
M  END
> <minimizedAffinity>
-10.43088

> <CNNscore>
0.8617379665

> <CNNaffinity>
7.9725799561

> <CNN_VS>
6.8702750206

> <CNNaffinity_variance>
0.0894003287

$$$$
[H]c1nc(N([H])[H])c(C(=O)N([H])c2c([H])nc([H])c([H])c2N2C([H])([H])C([H])([H])C([H])(N([H])[H])C([H])([H])C2([H])[H])nc1-c1c([H])c([H])c(OC([H])([H])[H])c([H])c1[H]


 36 39  0  0  0  0  0  0  0  0999 V2000
   51.6491   -4.9775   -6.2689 C   0  0  0  0  0  0  0  0  0  0  0  0
   50.6722   -5.6493   -6.6536 O   0  0  0  0  0  0  0  0  0  0  0  0
   52.1724   -4.8912   -4.9714 N   0  0  0  0  0  0  0  0  0  0  0  0
   53.0324   -4.2645   -4.8773 H   0  0  0  0  0  0  0  0  0  0  0  0
   54.2130   -3.8704   -8.7212 C   0  0  0  0  0  0  0  0  0  0  0  0
   53.5720   -2.8083   -9.2992 C   0  0  0  0  0  0  0  0  0  0  0  0
   52.3139   -2.4361   -8.9109 N   0  0  0  0  0  0  0  0  0  0  0  0
   51.6840   -3.1313   -7.9327 C   0  0  0  0  0  0  0  0  0  0  0  0
   50.3680   -2.7706   -7.5024 N   0  0  0  0  0  0  0  0  0  0  0  0
   52.3065   -4.1905   -7.3467 C   0  0  0  0  0  0  0  0  0  0  0  0
   53.5590   -4.5353   -7.7561 N   0  0  0  0  0  0  0  0  0  0  0  0
   50.2147   -2.2173   -6.6354 H   0  0  0  0  0  0  0  0  0  0  0  0
   49.5642   -3.0657   -8.0628 H   0  0  0  0  0  0  0  0  0  0  0  0
   58.1152   -5.1018   -9.9386 C   0  0  0  0  0  0  0  0  0  0  0  0
   57.7580   -5.1775   -8.6151 C   0  0  0  0  0  0  0  0  0  0  0  0
   56.4986   -4.7763   -8.2431 C   0  0  0  0  0  0  0  0  0  0  0  0
   55.5445   -4.2949   -9.1021 C   0  0  0  0  0  0  0  0  0  0  0  0
   55.9396   -4.2298  -10.4463 C   0  0  0  0  0  0  0  0  0  0  0  0
   57.1965   -4.6237  -10.8596 C   0  0  0  0  0  0  0  0  0  0  0  0
   60.1490   -6.3034   -9.4539 C   0  0  0  0  0  0  0  0  0  0  0  0
   59.3793   -5.5039  -10.3160 O   0  0  0  0  0  0  0  0  0  0  0  0
   51.7304   -5.5342   -3.7969 C   0  0  0  0  0  0  0  0  0  0  0  0
   50.4429   -5.4706   -3.3564 C   0  0  0  0  0  0  0  0  0  0  0  0
   50.0344   -6.1296   -2.2577 N   0  0  0  0  0  0  0  0  0  0  0  0
   50.8723   -6.8843   -1.5377 C   0  0  0  0  0  0  0  0  0  0  0  0
   52.1822   -6.9869   -1.9313 C   0  0  0  0  0  0  0  0  0  0  0  0
   52.6243   -6.3100   -3.0673 C   0  0  0  0  0  0  0  0  0  0  0  0
   53.9860   -6.3930   -3.4385 N   0  0  0  0  0  0  0  0  0  0  0  0
   55.0496   -5.6491   -2.8261 C   0  0  0  0  0  0  0  0  0  0  0  0
   56.1861   -6.5794   -2.4700 C   0  0  0  0  0  0  0  0  0  0  0  0
   55.7555   -8.0068   -2.5862 C   0  0  0  0  0  0  0  0  0  0  0  0
   56.9032   -8.8974   -2.3651 N   0  0  0  0  0  0  0  0  0  0  0  0
   55.2044   -8.3869   -3.9336 C   0  0  0  0  0  0  0  0  0  0  0  0
   54.3507   -7.3002   -4.5180 C   0  0  0  0  0  0  0  0  0  0  0  0
   56.6716   -9.8460   -2.6753 H   0  0  0  0  0  0  0  0  0  0  0  0
   57.2529   -8.8244   -1.3889 H   0  0  0  0  0  0  0  0  0  0  0  0
 20 21  1  0  0  0
 21 14  1  0  0  0
 14 15  2  0  0  0
 15 16  1  0  0  0
 16 17  2  0  0  0
 17  5  1  0  0  0
  5  6  2  0  0  0
  6  7  1  0  0  0
  7  8  2  0  0  0
  8  9  1  0  0  0
  8 10  1  0  0  0
 10  1  1  0  0  0
  1  2  2  0  0  0
  1  3  1  0  0  0
  3 22  1  0  0  0
 22 23  2  0  0  0
 23 24  1  0  0  0
 24 25  2  0  0  0
 25 26  1  0  0  0
 26 27  2  0  0  0
 27 28  1  0  0  0
 28 29  1  0  0  0
 29 30  1  0  0  0
 30 31  1  0  0  0
 31 32  1  0  0  0
 31 33  1  0  0  0
 33 34  1  0  0  0
 10 11  2  0  0  0
 17 18  1  0  0  0
 18 19  2  0  0  0
 19 14  1  0  0  0
 11  5  1  0  0  0
 27 22  1  0  0  0
 34 28  1  0  0  0
  9 12  1  0  0  0
  9 13  1  0  0  0
  3  4  1  0  0  0
 32 35  1  0  0  0
 32 36  1  0  0  0
M  END
> <minimizedAffinity>
-10.12391

> <CNNscore>
0.8417890668

> <CNNaffinity>
7.8043394089

> <CNN_VS>
6.5696077347

> <CNNaffinity_variance>
0.1592412889

$$$$
[H]c1nc(N([H])[H])c(C(=O)N([H])c2c([H])nc([H])c([H])c2N2C([H])([H])C([H])([H])C([H])(N([H])[H])C([H])([H])C2([H])[H])nc1-c1c([H])c([H])c(OC([H])([H])[H])c([H])c1[H]


 36 39  0  0  0  0  0  0  0  0999 V2000
   53.4146   -4.0671   -8.3395 C   0  0  0  0  0  0  0  0  0  0  0  0
   53.2476   -3.9540   -9.5695 O   0  0  0  0  0  0  0  0  0  0  0  0
   54.5924   -4.4130   -7.6628 N   0  0  0  0  0  0  0  0  0  0  0  0
   54.5072   -4.4302   -6.5980 H   0  0  0  0  0  0  0  0  0  0  0  0
   50.9044   -4.3008   -5.6088 C   0  0  0  0  0  0  0  0  0  0  0  0
   49.9983   -3.3582   -6.0132 C   0  0  0  0  0  0  0  0  0  0  0  0
   50.1812   -2.6386   -7.1625 N   0  0  0  0  0  0  0  0  0  0  0  0
   51.2826   -2.8602   -7.9208 C   0  0  0  0  0  0  0  0  0  0  0  0
   51.5063   -2.1255   -9.1279 N   0  0  0  0  0  0  0  0  0  0  0  0
   52.1942   -3.7939   -7.5338 C   0  0  0  0  0  0  0  0  0  0  0  0
   51.9826   -4.4934   -6.3843 N   0  0  0  0  0  0  0  0  0  0  0  0
   51.2913   -2.5357  -10.0590 H   0  0  0  0  0  0  0  0  0  0  0  0
   51.8862   -1.1771   -9.0686 H   0  0  0  0  0  0  0  0  0  0  0  0
   50.5130   -6.6697   -2.0788 C   0  0  0  0  0  0  0  0  0  0  0  0
   49.6681   -5.6072   -2.2843 C   0  0  0  0  0  0  0  0  0  0  0  0
   49.8100   -4.8570   -3.4256 C   0  0  0  0  0  0  0  0  0  0  0  0
   50.7466   -5.0845   -4.4008 C   0  0  0  0  0  0  0  0  0  0  0  0
   51.5941   -6.1761   -4.1618 C   0  0  0  0  0  0  0  0  0  0  0  0
   51.4830   -6.9542   -3.0269 C   0  0  0  0  0  0  0  0  0  0  0  0
   50.6860   -8.7955   -0.9537 C   0  0  0  0  0  0  0  0  0  0  0  0
   50.3734   -7.4256   -0.9337 O   0  0  0  0  0  0  0  0  0  0  0  0
   55.8620   -4.7134   -8.1977 C   0  0  0  0  0  0  0  0  0  0  0  0
   56.2951   -4.2302   -9.3955 C   0  0  0  0  0  0  0  0  0  0  0  0
   57.5276   -4.4937   -9.8643 N   0  0  0  0  0  0  0  0  0  0  0  0
   58.3957   -5.2456   -9.1778 C   0  0  0  0  0  0  0  0  0  0  0  0
   58.0166   -5.7612   -7.9645 C   0  0  0  0  0  0  0  0  0  0  0  0
   56.7424   -5.4995   -7.4628 C   0  0  0  0  0  0  0  0  0  0  0  0
   56.3515   -6.0702   -6.2297 N   0  0  0  0  0  0  0  0  0  0  0  0
   57.2479   -6.6698   -5.2828 C   0  0  0  0  0  0  0  0  0  0  0  0
   56.9788   -6.1175   -3.9021 C   0  0  0  0  0  0  0  0  0  0  0  0
   56.0831   -4.9223   -3.9775 C   0  0  0  0  0  0  0  0  0  0  0  0
   55.7254   -4.4764   -2.6238 N   0  0  0  0  0  0  0  0  0  0  0  0
   54.7752   -5.1633   -4.6811 C   0  0  0  0  0  0  0  0  0  0  0  0
   54.9377   -6.0506   -5.8801 C   0  0  0  0  0  0  0  0  0  0  0  0
   54.9371   -3.8235   -2.6701 H   0  0  0  0  0  0  0  0  0  0  0  0
   56.5592   -4.1273   -2.1105 H   0  0  0  0  0  0  0  0  0  0  0  0
 20 21  1  0  0  0
 21 14  1  0  0  0
 14 15  2  0  0  0
 15 16  1  0  0  0
 16 17  2  0  0  0
 17  5  1  0  0  0
  5  6  2  0  0  0
  6  7  1  0  0  0
  7  8  2  0  0  0
  8  9  1  0  0  0
  8 10  1  0  0  0
 10  1  1  0  0  0
  1  2  2  0  0  0
  1  3  1  0  0  0
  3 22  1  0  0  0
 22 23  2  0  0  0
 23 24  1  0  0  0
 24 25  2  0  0  0
 25 26  1  0  0  0
 26 27  2  0  0  0
 27 28  1  0  0  0
 28 29  1  0  0  0
 29 30  1  0  0  0
 30 31  1  0  0  0
 31 32  1  0  0  0
 31 33  1  0  0  0
 33 34  1  0  0  0
 10 11  2  0  0  0
 17 18  1  0  0  0
 18 19  2  0  0  0
 19 14  1  0  0  0
 11  5  1  0  0  0
 27 22  1  0  0  0
 34 28  1  0  0  0
  9 12  1  0  0  0
  9 13  1  0  0  0
  3  4  1  0  0  0
 32 35  1  0  0  0
 32 36  1  0  0  0
M  END
> <minimizedAffinity>
-8.17790

> <CNNscore>
0.7453285456

> <CNNaffinity>
7.8045592308

> <CNN_VS>
5.8169608116

> <CNNaffinity_variance>
0.1369872391

$$$$
[H]c1nc(N([H])[H])c(C(=O)N([H])c2c([H])nc([H])c([H])c2N2C([H])([H])C([H])([H])C([H])(N([H])[H])C([H])([H])C2([H])[H])nc1-c1c([H])c([H])c(OC([H])([H])[H])c([H])c1[H]


 36 39  0  0  0  0  0  0  0  0999 V2000
   53.5455   -4.2343   -7.9534 C   0  0  0  0  0  0  0  0  0  0  0  0
   53.2638   -4.0260   -9.1496 O   0  0  0  0  0  0  0  0  0  0  0  0
   52.7305   -4.0257   -6.8321 N   0  0  0  0  0  0  0  0  0  0  0  0
   53.1767   -4.2944   -5.8994 H   0  0  0  0  0  0  0  0  0  0  0  0
   56.3952   -6.0073   -6.3570 C   0  0  0  0  0  0  0  0  0  0  0  0
   57.3879   -5.7678   -7.2681 C   0  0  0  0  0  0  0  0  0  0  0  0
   57.1558   -5.0375   -8.4016 N   0  0  0  0  0  0  0  0  0  0  0  0
   55.9171   -4.5382   -8.6322 C   0  0  0  0  0  0  0  0  0  0  0  0
   55.6386   -3.7710   -9.8074 N   0  0  0  0  0  0  0  0  0  0  0  0
   54.9177   -4.7666   -7.7368 C   0  0  0  0  0  0  0  0  0  0  0  0
   55.1815   -5.4975   -6.6181 N   0  0  0  0  0  0  0  0  0  0  0  0
   55.6000   -2.7323   -9.7791 H   0  0  0  0  0  0  0  0  0  0  0  0
   55.4745   -4.2594  -10.6916 H   0  0  0  0  0  0  0  0  0  0  0  0
   56.9038   -8.2896   -2.7851 C   0  0  0  0  0  0  0  0  0  0  0  0
   57.9704   -7.6078   -3.3166 C   0  0  0  0  0  0  0  0  0  0  0  0
   57.7870   -6.8797   -4.4662 C   0  0  0  0  0  0  0  0  0  0  0  0
   56.6004   -6.7733   -5.1448 C   0  0  0  0  0  0  0  0  0  0  0  0
   55.5306   -7.4806   -4.5771 C   0  0  0  0  0  0  0  0  0  0  0  0
   55.6750   -8.2237   -3.4226 C   0  0  0  0  0  0  0  0  0  0  0  0
   58.3289   -9.6167   -1.3628 C   0  0  0  0  0  0  0  0  0  0  0  0
   57.0842   -9.0219   -1.6304 O   0  0  0  0  0  0  0  0  0  0  0  0
   51.4090   -3.5365   -6.7802 C   0  0  0  0  0  0  0  0  0  0  0  0
   50.9584   -2.5316   -7.5821 C   0  0  0  0  0  0  0  0  0  0  0  0
   49.6812   -2.1125   -7.5462 N   0  0  0  0  0  0  0  0  0  0  0  0
   48.7835   -2.6612   -6.7197 C   0  0  0  0  0  0  0  0  0  0  0  0
   49.1781   -3.6773   -5.8871 C   0  0  0  0  0  0  0  0  0  0  0  0
   50.4985   -4.1246   -5.9095 C   0  0  0  0  0  0  0  0  0  0  0  0
   50.9006   -5.1455   -5.0178 N   0  0  0  0  0  0  0  0  0  0  0  0
   52.2128   -5.7251   -4.9729 C   0  0  0  0  0  0  0  0  0  0  0  0
   52.7155   -5.7444   -3.5479 C   0  0  0  0  0  0  0  0  0  0  0  0
   51.8439   -4.9044   -2.6696 C   0  0  0  0  0  0  0  0  0  0  0  0
   52.2661   -5.0371   -1.2684 N   0  0  0  0  0  0  0  0  0  0  0  0
   50.3873   -5.2807   -2.6890 C   0  0  0  0  0  0  0  0  0  0  0  0
   49.9216   -5.6524   -4.0660 C   0  0  0  0  0  0  0  0  0  0  0  0
   51.5393   -4.6641   -0.6499 H   0  0  0  0  0  0  0  0  0  0  0  0
   53.2163   -4.6415   -1.1231 H   0  0  0  0  0  0  0  0  0  0  0  0
 20 21  1  0  0  0
 21 14  1  0  0  0
 14 15  2  0  0  0
 15 16  1  0  0  0
 16 17  2  0  0  0
 17  5  1  0  0  0
  5  6  2  0  0  0
  6  7  1  0  0  0
  7  8  2  0  0  0
  8  9  1  0  0  0
  8 10  1  0  0  0
 10  1  1  0  0  0
  1  2  2  0  0  0
  1  3  1  0  0  0
  3 22  1  0  0  0
 22 23  2  0  0  0
 23 24  1  0  0  0
 24 25  2  0  0  0
 25 26  1  0  0  0
 26 27  2  0  0  0
 27 28  1  0  0  0
 28 29  1  0  0  0
 29 30  1  0  0  0
 30 31  1  0  0  0
 31 32  1  0  0  0
 31 33  1  0  0  0
 33 34  1  0  0  0
 10 11  2  0  0  0
 17 18  1  0  0  0
 18 19  2  0  0  0
 19 14  1  0  0  0
 11  5  1  0  0  0
 27 22  1  0  0  0
 34 28  1  0  0  0
  9 12  1  0  0  0
  9 13  1  0  0  0
  3  4  1  0  0  0
 32 35  1  0  0  0
 32 36  1  0  0  0
M  END
> <minimizedAffinity>
-7.32382

> <CNNscore>
0.5994641781

> <CNNaffinity>
7.6893758774

> <CNN_VS>
4.6095051765

> <CNNaffinity_variance>
0.1360739470

$$$$
[H]c1nc(N([H])[H])c(C(=O)N([H])c2c([H])nc([H])c([H])c2N2C([H])([H])C([H])([H])C([H])(N([H])[H])C([H])([H])C2([H])[H])nc1-c1c([H])c([H])c(OC([H])([H])[H])c([H])c1[H]


 36 39  0  0  0  0  0  0  0  0999 V2000
   55.7747   -4.1975   -7.9531 C   0  0  0  0  0  0  0  0  0  0  0  0
   56.4243   -3.5705   -7.0938 O   0  0  0  0  0  0  0  0  0  0  0  0
   56.2747   -4.9679   -9.0121 N   0  0  0  0  0  0  0  0  0  0  0  0
   55.5276   -5.4344   -9.6167 H   0  0  0  0  0  0  0  0  0  0  0  0
   52.3828   -4.5151   -6.4677 C   0  0  0  0  0  0  0  0  0  0  0  0
   51.6212   -3.9284   -7.4417 C   0  0  0  0  0  0  0  0  0  0  0  0
   52.1846   -3.4254   -8.5825 N   0  0  0  0  0  0  0  0  0  0  0  0
   53.5263   -3.5072   -8.7567 C   0  0  0  0  0  0  0  0  0  0  0  0
   54.1492   -2.9908   -9.9368 N   0  0  0  0  0  0  0  0  0  0  0  0
   54.2992   -4.0874   -7.7983 C   0  0  0  0  0  0  0  0  0  0  0  0
   53.7073   -4.5785   -6.6741 N   0  0  0  0  0  0  0  0  0  0  0  0
   54.4268   -3.6160  -10.7200 H   0  0  0  0  0  0  0  0  0  0  0  0
   54.3231   -1.9848  -10.0066 H   0  0  0  0  0  0  0  0  0  0  0  0
   50.8243   -6.1724   -2.8551 C   0  0  0  0  0  0  0  0  0  0  0  0
   50.0332   -5.3611   -3.6302 C   0  0  0  0  0  0  0  0  0  0  0  0
   50.5526   -4.8372   -4.7883 C   0  0  0  0  0  0  0  0  0  0  0  0
   51.8250   -5.0611   -5.2473 C   0  0  0  0  0  0  0  0  0  0  0  0
   52.6078   -5.8934   -4.4340 C   0  0  0  0  0  0  0  0  0  0  0  0
   52.1218   -6.4392   -3.2627 C   0  0  0  0  0  0  0  0  0  0  0  0
   50.8831   -7.8488   -1.1227 C   0  0  0  0  0  0  0  0  0  0  0  0
   50.3060   -6.7005   -1.6913 O   0  0  0  0  0  0  0  0  0  0  0  0
   57.6168   -5.2216   -9.3622 C   0  0  0  0  0  0  0  0  0  0  0  0
   58.5142   -5.7803   -8.5030 C   0  0  0  0  0  0  0  0  0  0  0  0
   59.7773   -6.0546   -8.8740 N   0  0  0  0  0  0  0  0  0  0  0  0
   60.2203   -5.7932  -10.1091 C   0  0  0  0  0  0  0  0  0  0  0  0
   59.3627   -5.2298  -11.0194 C   0  0  0  0  0  0  0  0  0  0  0  0
   58.0498   -4.9375  -10.6525 C   0  0  0  0  0  0  0  0  0  0  0  0
   57.1886   -4.3204  -11.5889 N   0  0  0  0  0  0  0  0  0  0  0  0
   57.5270   -3.1733  -12.3822 C   0  0  0  0  0  0  0  0  0  0  0  0
   57.1826   -3.4329  -13.8307 C   0  0  0  0  0  0  0  0  0  0  0  0
   56.8760   -4.8803  -14.0487 C   0  0  0  0  0  0  0  0  0  0  0  0
   56.4174   -5.0944  -15.4282 N   0  0  0  0  0  0  0  0  0  0  0  0
   55.7835   -5.4281  -13.1713 C   0  0  0  0  0  0  0  0  0  0  0  0
   55.8583   -4.8835  -11.7752 C   0  0  0  0  0  0  0  0  0  0  0  0
   55.9854   -6.0198  -15.5110 H   0  0  0  0  0  0  0  0  0  0  0  0
   57.1759   -4.8977  -16.1113 H   0  0  0  0  0  0  0  0  0  0  0  0
 20 21  1  0  0  0
 21 14  1  0  0  0
 14 15  2  0  0  0
 15 16  1  0  0  0
 16 17  2  0  0  0
 17  5  1  0  0  0
  5  6  2  0  0  0
  6  7  1  0  0  0
  7  8  2  0  0  0
  8  9  1  0  0  0
  8 10  1  0  0  0
 10  1  1  0  0  0
  1  2  2  0  0  0
  1  3  1  0  0  0
  3 22  1  0  0  0
 22 23  2  0  0  0
 23 24  1  0  0  0
 24 25  2  0  0  0
 25 26  1  0  0  0
 26 27  2  0  0  0
 27 28  1  0  0  0
 28 29  1  0  0  0
 29 30  1  0  0  0
 30 31  1  0  0  0
 31 32  1  0  0  0
 31 33  1  0  0  0
 33 34  1  0  0  0
 10 11  2  0  0  0
 17 18  1  0  0  0
 18 19  2  0  0  0
 19 14  1  0  0  0
 11  5  1  0  0  0
 27 22  1  0  0  0
 34 28  1  0  0  0
  9 12  1  0  0  0
  9 13  1  0  0  0
  3  4  1  0  0  0
 32 35  1  0  0  0
 32 36  1  0  0  0
M  END
> <minimizedAffinity>
-6.53354

> <CNNscore>
0.5184808969

> <CNNaffinity>
7.0637917519

> <CNN_VS>
3.6624410152

> <CNNaffinity_variance>
0.0697519705

$$$$
[H]c1nc(N([H])[H])c(C(=O)N([H])c2c([H])nc([H])c([H])c2N2C([H])([H])C([H])([H])C([H])(N([H])[H])C([H])([H])C2([H])[H])nc1-c1c([H])c([H])c(OC([H])([H])[H])c([H])c1[H]


 36 39  0  0  0  0  0  0  0  0999 V2000
   54.3724   -3.1233   -8.6338 C   0  0  0  0  0  0  0  0  0  0  0  0
   54.4888   -1.8930   -8.4712 O   0  0  0  0  0  0  0  0  0  0  0  0
   53.2874   -3.9361   -8.2773 N   0  0  0  0  0  0  0  0  0  0  0  0
   53.3992   -4.9675   -8.5323 H   0  0  0  0  0  0  0  0  0  0  0  0
   56.6412   -4.3660  -11.3023 C   0  0  0  0  0  0  0  0  0  0  0  0
   57.6466   -4.9103  -10.5501 C   0  0  0  0  0  0  0  0  0  0  0  0
   57.6091   -4.8850   -9.1826 N   0  0  0  0  0  0  0  0  0  0  0  0
   56.5553   -4.3092   -8.5541 C   0  0  0  0  0  0  0  0  0  0  0  0
   56.4838   -4.2641   -7.1258 N   0  0  0  0  0  0  0  0  0  0  0  0
   55.5464   -3.7629   -9.2864 C   0  0  0  0  0  0  0  0  0  0  0  0
   55.6138   -3.8046  -10.6462 N   0  0  0  0  0  0  0  0  0  0  0  0
   55.9017   -4.9400   -6.5914 H   0  0  0  0  0  0  0  0  0  0  0  0
   57.0182   -3.5498   -6.6244 H   0  0  0  0  0  0  0  0  0  0  0  0
   56.7147   -4.3197  -15.5706 C   0  0  0  0  0  0  0  0  0  0  0  0
   55.8359   -5.1440  -14.9125 C   0  0  0  0  0  0  0  0  0  0  0  0
   55.8276   -5.1451  -13.5394 C   0  0  0  0  0  0  0  0  0  0  0  0
   56.6423   -4.3741  -12.7509 C   0  0  0  0  0  0  0  0  0  0  0  0
   57.5280   -3.5433  -13.4524 C   0  0  0  0  0  0  0  0  0  0  0  0
   57.5666   -3.5137  -14.8321 C   0  0  0  0  0  0  0  0  0  0  0  0
   56.6360   -3.1006  -17.6497 C   0  0  0  0  0  0  0  0  0  0  0  0
   56.7258   -4.3158  -16.9497 O   0  0  0  0  0  0  0  0  0  0  0  0
   52.0760   -3.5687   -7.6563 C   0  0  0  0  0  0  0  0  0  0  0  0
   51.3832   -2.4441   -7.9896 C   0  0  0  0  0  0  0  0  0  0  0  0
   50.2066   -2.1380   -7.4150 N   0  0  0  0  0  0  0  0  0  0  0  0
   49.6527   -2.9232   -6.4840 C   0  0  0  0  0  0  0  0  0  0  0  0
   50.3038   -4.0698   -6.1061 C   0  0  0  0  0  0  0  0  0  0  0  0
   51.5252   -4.4031   -6.6901 C   0  0  0  0  0  0  0  0  0  0  0  0
   52.2042   -5.5672   -6.2623 N   0  0  0  0  0  0  0  0  0  0  0  0
   53.0629   -6.3662   -7.0892 C   0  0  0  0  0  0  0  0  0  0  0  0
   54.3686   -6.6237   -6.3732 C   0  0  0  0  0  0  0  0  0  0  0  0
   54.4928   -5.7441   -5.1701 C   0  0  0  0  0  0  0  0  0  0  0  0
   55.7021   -6.0961   -4.4132 N   0  0  0  0  0  0  0  0  0  0  0  0
   53.3566   -5.8588   -4.1905 C   0  0  0  0  0  0  0  0  0  0  0  0
   52.0316   -5.9957   -4.8810 C   0  0  0  0  0  0  0  0  0  0  0  0
   55.6647   -5.6711   -3.4816 H   0  0  0  0  0  0  0  0  0  0  0  0
   56.5615   -5.8883   -4.9599 H   0  0  0  0  0  0  0  0  0  0  0  0
 20 21  1  0  0  0
 21 14  1  0  0  0
 14 15  2  0  0  0
 15 16  1  0  0  0
 16 17  2  0  0  0
 17  5  1  0  0  0
  5  6  2  0  0  0
  6  7  1  0  0  0
  7  8  2  0  0  0
  8  9  1  0  0  0
  8 10  1  0  0  0
 10  1  1  0  0  0
  1  2  2  0  0  0
  1  3  1  0  0  0
  3 22  1  0  0  0
 22 23  2  0  0  0
 23 24  1  0  0  0
 24 25  2  0  0  0
 25 26  1  0  0  0
 26 27  2  0  0  0
 27 28  1  0  0  0
 28 29  1  0  0  0
 29 30  1  0  0  0
 30 31  1  0  0  0
 31 32  1  0  0  0
 31 33  1  0  0  0
 33 34  1  0  0  0
 10 11  2  0  0  0
 17 18  1  0  0  0
 18 19  2  0  0  0
 19 14  1  0  0  0
 11  5  1  0  0  0
 27 22  1  0  0  0
 34 28  1  0  0  0
  9 12  1  0  0  0
  9 13  1  0  0  0
  3  4  1  0  0  0
 32 35  1  0  0  0
 32 36  1  0  0  0
M  END
> <minimizedAffinity>
-9.42260

> <CNNscore>
0.5028663874

> <CNNaffinity>
7.2621359825

> <CNN_VS>
3.6518840790

> <CNNaffinity_variance>
0.0585207641

$$$$
[H]c1nc(N([H])[H])c(C(=O)N([H])c2c([H])nc([H])c([H])c2N2C([H])([H])C([H])([H])C([H])(N([H])[H])C([H])([H])C2([H])[H])nc1-c1c([H])c([H])c(OC([H])([H])[H])c([H])c1[H]


 36 39  0  0  0  0  0  0  0  0999 V2000
   52.1270   -3.7775   -7.5667 C   0  0  0  0  0  0  0  0  0  0  0  0
   51.6304   -3.2307   -8.5706 O   0  0  0  0  0  0  0  0  0  0  0  0
   53.4230   -4.2924   -7.4242 N   0  0  0  0  0  0  0  0  0  0  0  0
   53.6378   -4.7011   -6.4608 H   0  0  0  0  0  0  0  0  0  0  0  0
   50.7566   -4.7817   -4.2612 C   0  0  0  0  0  0  0  0  0  0  0  0
   49.5685   -4.1026   -4.2601 C   0  0  0  0  0  0  0  0  0  0  0  0
   49.1941   -3.3169   -5.3158 N   0  0  0  0  0  0  0  0  0  0  0  0
   50.0146   -3.2050   -6.3888 C   0  0  0  0  0  0  0  0  0  0  0  0
   49.6554   -2.3915   -7.5097 N   0  0  0  0  0  0  0  0  0  0  0  0
   51.2001   -3.8734   -6.4070 C   0  0  0  0  0  0  0  0  0  0  0  0
   51.5434   -4.6475   -5.3401 N   0  0  0  0  0  0  0  0  0  0  0  0
   49.2609   -2.8084   -8.3768 H   0  0  0  0  0  0  0  0  0  0  0  0
   49.7917   -1.3789   -7.4520 H   0  0  0  0  0  0  0  0  0  0  0  0
   51.9742   -7.3401   -1.0678 C   0  0  0  0  0  0  0  0  0  0  0  0
   52.4154   -6.0406   -1.1067 C   0  0  0  0  0  0  0  0  0  0  0  0
   52.0132   -5.2334   -2.1421 C   0  0  0  0  0  0  0  0  0  0  0  0
   51.1884   -5.6247   -3.1651 C   0  0  0  0  0  0  0  0  0  0  0  0
   50.7549   -6.9568   -3.0970 C   0  0  0  0  0  0  0  0  0  0  0  0
   51.1372   -7.7994   -2.0724 C   0  0  0  0  0  0  0  0  0  0  0  0
   52.0673   -9.5246   -0.0506 C   0  0  0  0  0  0  0  0  0  0  0  0
   52.3760   -8.1538   -0.0292 O   0  0  0  0  0  0  0  0  0  0  0  0
   54.4710   -4.3184   -8.3672 C   0  0  0  0  0  0  0  0  0  0  0  0
   54.2920   -4.0152   -9.6832 C   0  0  0  0  0  0  0  0  0  0  0  0
   55.3157   -4.0028  -10.5550 N   0  0  0  0  0  0  0  0  0  0  0  0
   56.5666   -4.2878  -10.1756 C   0  0  0  0  0  0  0  0  0  0  0  0
   56.8096   -4.6015   -8.8626 C   0  0  0  0  0  0  0  0  0  0  0  0
   55.7606   -4.6205   -7.9443 C   0  0  0  0  0  0  0  0  0  0  0  0
   56.0193   -4.9843   -6.6028 N   0  0  0  0  0  0  0  0  0  0  0  0
   55.6168   -4.2232   -5.4546 C   0  0  0  0  0  0  0  0  0  0  0  0
   54.9326   -5.1271   -4.4552 C   0  0  0  0  0  0  0  0  0  0  0  0
   54.6198   -6.4533   -5.0713 C   0  0  0  0  0  0  0  0  0  0  0  0
   54.0754   -7.3637   -4.0544 N   0  0  0  0  0  0  0  0  0  0  0  0
   55.8075   -7.1674   -5.6571 C   0  0  0  0  0  0  0  0  0  0  0  0
   56.7430   -6.2234   -6.3534 C   0  0  0  0  0  0  0  0  0  0  0  0
   54.0860   -8.3254   -4.4079 H   0  0  0  0  0  0  0  0  0  0  0  0
   53.1544   -7.0306   -3.7062 H   0  0  0  0  0  0  0  0  0  0  0  0
 20 21  1  0  0  0
 21 14  1  0  0  0
 14 15  2  0  0  0
 15 16  1  0  0  0
 16 17  2  0  0  0
 17  5  1  0  0  0
  5  6  2  0  0  0
  6  7  1  0  0  0
  7  8  2  0  0  0
  8  9  1  0  0  0
  8 10  1  0  0  0
 10  1  1  0  0  0
  1  2  2  0  0  0
  1  3  1  0  0  0
  3 22  1  0  0  0
 22 23  2  0  0  0
 23 24  1  0  0  0
 24 25  2  0  0  0
 25 26  1  0  0  0
 26 27  2  0  0  0
 27 28  1  0  0  0
 28 29  1  0  0  0
 29 30  1  0  0  0
 30 31  1  0  0  0
 31 32  1  0  0  0
 31 33  1  0  0  0
 33 34  1  0  0  0
 10 11  2  0  0  0
 17 18  1  0  0  0
 18 19  2  0  0  0
 19 14  1  0  0  0
 11  5  1  0  0  0
 27 22  1  0  0  0
 34 28  1  0  0  0
  9 12  1  0  0  0
  9 13  1  0  0  0
  3  4  1  0  0  0
 32 35  1  0  0  0
 32 36  1  0  0  0
M  END
> <minimizedAffinity>
-7.81443

> <CNNscore>
0.4630126953

> <CNNaffinity>
7.5730605125

> <CNN_VS>
3.5064232349

> <CNNaffinity_variance>
0.2128462791

$$$$
[H]c1nc(N([H])[H])c(C(=O)N([H])c2c([H])nc([H])c([H])c2N2C([H])([H])C([H])([H])C([H])(N([H])[H])C([H])([H])C2([H])[H])nc1-c1c([H])c([H])c(OC([H])([H])[H])c([H])c1[H]


 36 39  0  0  0  0  0  0  0  0999 V2000
   51.9816   -5.6287   -5.9761 C   0  0  0  0  0  0  0  0  0  0  0  0
   51.1619   -6.4878   -6.3550 O   0  0  0  0  0  0  0  0  0  0  0  0
   52.5780   -5.5114   -4.7129 N   0  0  0  0  0  0  0  0  0  0  0  0
   53.2705   -4.7033   -4.6193 H   0  0  0  0  0  0  0  0  0  0  0  0
   53.8777   -3.9331   -8.6858 C   0  0  0  0  0  0  0  0  0  0  0  0
   53.0662   -2.8591   -8.9322 C   0  0  0  0  0  0  0  0  0  0  0  0
   51.9049   -2.6667   -8.2347 N   0  0  0  0  0  0  0  0  0  0  0  0
   51.5456   -3.5567   -7.2777 C   0  0  0  0  0  0  0  0  0  0  0  0
   50.3377   -3.3873   -6.5298 N   0  0  0  0  0  0  0  0  0  0  0  0
   52.3407   -4.6308   -7.0194 C   0  0  0  0  0  0  0  0  0  0  0  0
   53.4904   -4.7935   -7.7314 N   0  0  0  0  0  0  0  0  0  0  0  0
   50.3471   -2.9880   -5.5696 H   0  0  0  0  0  0  0  0  0  0  0  0
   49.4486   -3.6665   -6.9527 H   0  0  0  0  0  0  0  0  0  0  0  0
   57.4823   -4.6008  -10.8738 C   0  0  0  0  0  0  0  0  0  0  0  0
   57.4184   -4.9396   -9.5449 C   0  0  0  0  0  0  0  0  0  0  0  0
   56.2505   -4.7167   -8.8581 C   0  0  0  0  0  0  0  0  0  0  0  0
   55.1152   -4.1714   -9.4001 C   0  0  0  0  0  0  0  0  0  0  0  0
   55.2121   -3.8363  -10.7585 C   0  0  0  0  0  0  0  0  0  0  0  0
   56.3685   -4.0449  -11.4832 C   0  0  0  0  0  0  0  0  0  0  0  0
   59.0456   -3.9393  -12.5865 C   0  0  0  0  0  0  0  0  0  0  0  0
   58.6536   -4.8234  -11.5669 O   0  0  0  0  0  0  0  0  0  0  0  0
   52.4017   -6.3247   -3.5747 C   0  0  0  0  0  0  0  0  0  0  0  0
   51.1941   -6.5014   -2.9695 C   0  0  0  0  0  0  0  0  0  0  0  0
   51.0420   -7.3180   -1.9120 N   0  0  0  0  0  0  0  0  0  0  0  0
   52.0705   -8.0017   -1.3973 C   0  0  0  0  0  0  0  0  0  0  0  0
   53.3121   -7.8643   -1.9637 C   0  0  0  0  0  0  0  0  0  0  0  0
   53.4893   -7.0214   -3.0601 C   0  0  0  0  0  0  0  0  0  0  0  0
   54.7822   -6.8590   -3.6088 N   0  0  0  0  0  0  0  0  0  0  0  0
   55.2294   -7.4432   -4.8411 C   0  0  0  0  0  0  0  0  0  0  0  0
   55.8870   -6.3874   -5.6993 C   0  0  0  0  0  0  0  0  0  0  0  0
   55.6185   -5.0213   -5.1532 C   0  0  0  0  0  0  0  0  0  0  0  0
   56.3696   -4.0174   -5.9196 N   0  0  0  0  0  0  0  0  0  0  0  0
   56.0331   -4.8272   -3.7200 C   0  0  0  0  0  0  0  0  0  0  0  0
   55.7396   -6.0366   -2.8819 C   0  0  0  0  0  0  0  0  0  0  0  0
   56.3799   -3.1282   -5.4106 H   0  0  0  0  0  0  0  0  0  0  0  0
   56.0298   -3.9617   -6.9004 H   0  0  0  0  0  0  0  0  0  0  0  0
 20 21  1  0  0  0
 21 14  1  0  0  0
 14 15  2  0  0  0
 15 16  1  0  0  0
 16 17  2  0  0  0
 17  5  1  0  0  0
  5  6  2  0  0  0
  6  7  1  0  0  0
  7  8  2  0  0  0
  8  9  1  0  0  0
  8 10  1  0  0  0
 10  1  1  0  0  0
  1  2  2  0  0  0
  1  3  1  0  0  0
  3 22  1  0  0  0
 22 23  2  0  0  0
 23 24  1  0  0  0
 24 25  2  0  0  0
 25 26  1  0  0  0
 26 27  2  0  0  0
 27 28  1  0  0  0
 28 29  1  0  0  0
 29 30  1  0  0  0
 30 31  1  0  0  0
 31 32  1  0  0  0
 31 33  1  0  0  0
 33 34  1  0  0  0
 10 11  2  0  0  0
 17 18  1  0  0  0
 18 19  2  0  0  0
 19 14  1  0  0  0
 11  5  1  0  0  0
 27 22  1  0  0  0
 34 28  1  0  0  0
  9 12  1  0  0  0
  9 13  1  0  0  0
  3  4  1  0  0  0
 32 35  1  0  0  0
 32 36  1  0  0  0
M  END
> <minimizedAffinity>
-9.87144

> <CNNscore>
0.4094500840

> <CNNaffinity>
7.4762830734

> <CNN_VS>
3.0611646175

> <CNNaffinity_variance>
0.0474180356

$$$$
[H]c1nc(N([H])[H])c(C(=O)N([H])c2c([H])nc([H])c([H])c2N2C([H])([H])C([H])([H])C([H])(N([H])[H])C([H])([H])C2([H])[H])nc1-c1c([H])c([H])c(OC([H])([H])[H])c([H])c1[H]


 36 39  0  0  0  0  0  0  0  0999 V2000
   55.2747   -4.2600   -8.2607 C   0  0  0  0  0  0  0  0  0  0  0  0
   55.0887   -3.0336   -8.1388 O   0  0  0  0  0  0  0  0  0  0  0  0
   54.5147   -5.3011   -7.7098 N   0  0  0  0  0  0  0  0  0  0  0  0
   54.8502   -6.2826   -7.9652 H   0  0  0  0  0  0  0  0  0  0  0  0
   57.4903   -4.5591  -11.2296 C   0  0  0  0  0  0  0  0  0  0  0  0
   58.5552   -5.2262  -10.6876 C   0  0  0  0  0  0  0  0  0  0  0  0
   58.5755   -5.5866   -9.3679 N   0  0  0  0  0  0  0  0  0  0  0  0
   57.5201   -5.2782   -8.5753 C   0  0  0  0  0  0  0  0  0  0  0  0
   57.5079   -5.6388   -7.1908 N   0  0  0  0  0  0  0  0  0  0  0  0
   56.4524   -4.6150   -9.0975 C   0  0  0  0  0  0  0  0  0  0  0  0
   56.4632   -4.2706  -10.4153 N   0  0  0  0  0  0  0  0  0  0  0  0
   56.9870   -6.4730   -6.8532 H   0  0  0  0  0  0  0  0  0  0  0  0
   58.0240   -5.0603   -6.5227 H   0  0  0  0  0  0  0  0  0  0  0  0
   57.4063   -3.3626  -15.3269 C   0  0  0  0  0  0  0  0  0  0  0  0
   56.2623   -3.8310  -14.7295 C   0  0  0  0  0  0  0  0  0  0  0  0
   56.3095   -4.2115  -13.4110 C   0  0  0  0  0  0  0  0  0  0  0  0
   57.4293   -4.1620  -12.6214 C   0  0  0  0  0  0  0  0  0  0  0  0
   58.5808   -3.6793  -13.2601 C   0  0  0  0  0  0  0  0  0  0  0  0
   58.5737   -3.2871  -14.5838 C   0  0  0  0  0  0  0  0  0  0  0  0
   56.1505   -3.0371  -17.3596 C   0  0  0  0  0  0  0  0  0  0  0  0
   57.3627   -2.9795  -16.6510 O   0  0  0  0  0  0  0  0  0  0  0  0
   53.3677   -5.2202   -6.8936 C   0  0  0  0  0  0  0  0  0  0  0  0
   52.1718   -4.7447   -7.3404 C   0  0  0  0  0  0  0  0  0  0  0  0
   51.0796   -4.7194   -6.5565 N   0  0  0  0  0  0  0  0  0  0  0  0
   51.1093   -5.1610   -5.2939 C   0  0  0  0  0  0  0  0  0  0  0  0
   52.2857   -5.6513   -4.7870 C   0  0  0  0  0  0  0  0  0  0  0  0
   53.4288   -5.6846   -5.5845 C   0  0  0  0  0  0  0  0  0  0  0  0
   54.6440   -6.1556   -5.0363 N   0  0  0  0  0  0  0  0  0  0  0  0
   55.5530   -5.3646   -4.2567 C   0  0  0  0  0  0  0  0  0  0  0  0
   55.9237   -6.1068   -2.9935 C   0  0  0  0  0  0  0  0  0  0  0  0
   55.0259   -7.2856   -2.7915 C   0  0  0  0  0  0  0  0  0  0  0  0
   55.4793   -8.0699   -1.6345 N   0  0  0  0  0  0  0  0  0  0  0  0
   54.9916   -8.2515   -3.9446 C   0  0  0  0  0  0  0  0  0  0  0  0
   55.0102   -7.5461   -5.2687 C   0  0  0  0  0  0  0  0  0  0  0  0
   55.0248   -8.9881   -1.6378 H   0  0  0  0  0  0  0  0  0  0  0  0
   55.3791   -7.5299   -0.7519 H   0  0  0  0  0  0  0  0  0  0  0  0
 20 21  1  0  0  0
 21 14  1  0  0  0
 14 15  2  0  0  0
 15 16  1  0  0  0
 16 17  2  0  0  0
 17  5  1  0  0  0
  5  6  2  0  0  0
  6  7  1  0  0  0
  7  8  2  0  0  0
  8  9  1  0  0  0
  8 10  1  0  0  0
 10  1  1  0  0  0
  1  2  2  0  0  0
  1  3  1  0  0  0
  3 22  1  0  0  0
 22 23  2  0  0  0
 23 24  1  0  0  0
 24 25  2  0  0  0
 25 26  1  0  0  0
 26 27  2  0  0  0
 27 28  1  0  0  0
 28 29  1  0  0  0
 29 30  1  0  0  0
 30 31  1  0  0  0
 31 32  1  0  0  0
 31 33  1  0  0  0
 33 34  1  0  0  0
 10 11  2  0  0  0
 17 18  1  0  0  0
 18 19  2  0  0  0
 19 14  1  0  0  0
 11  5  1  0  0  0
 27 22  1  0  0  0
 34 28  1  0  0  0
  9 12  1  0  0  0
  9 13  1  0  0  0
  3  4  1  0  0  0
 32 35  1  0  0  0
 32 36  1  0  0  0
M  END
> <minimizedAffinity>
-8.82030

> <CNNscore>
0.3334808052

> <CNNaffinity>
6.6564178467

> <CNN_VS>
2.2197875977

> <CNNaffinity_variance>
0.0679470301

$$$$
[H]c1c([H])c(N([H])C(=O)N([H])[C@]([H])(C(=O)N([H])[C@]([H])(C(=O)N([H])[H])C([H])([H])C([H])([H])C([H])([H])[H])C([H])([H])C([H])(C([H])([H])[H])C([H])([H])[H])c([H])c([H])c1Br


 31 31  0  0  0  0  0  0  0  0999 V2000
   54.7079   -4.0358   -7.9633 C   0  0  0  0  0  0  0  0  0  0  0  0
   54.9820   -5.3912   -7.5013 N   0  0  0  0  0  0  0  0  0  0  0  0
   55.5869   -5.5870   -6.2380 C   0  0  0  0  0  0  0  0  0  0  0  0
   55.8908   -4.5873   -5.5085 O   0  0  0  0  0  0  0  0  0  0  0  0
   55.8594   -6.8758   -5.7723 N   0  0  0  0  0  0  0  0  0  0  0  0
   54.7357   -6.1803   -8.0914 H   0  0  0  0  0  0  0  0  0  0  0  0
   55.5796   -7.6601   -6.4488 H   0  0  0  0  0  0  0  0  0  0  0  0
   56.4405   -7.2636   -4.5445 C   0  0  0  0  0  0  0  0  0  0  0  0
   57.7709   -7.2071   -4.2314 C   0  0  0  0  0  0  0  0  0  0  0  0
   58.2652   -7.6361   -2.9861 C   0  0  0  0  0  0  0  0  0  0  0  0
   57.4281   -8.1344   -2.0205 C   0  0  0  0  0  0  0  0  0  0  0  0
   58.1017   -8.7173   -0.3284 Br  0  0  0  0  0  0  0  0  0  0  0  0
   56.0915   -8.1966   -2.3199 C   0  0  0  0  0  0  0  0  0  0  0  0
   55.6080   -7.7782   -3.5356 C   0  0  0  0  0  0  0  0  0  0  0  0
   52.3425   -4.1998   -7.1482 N   0  0  0  0  0  0  0  0  0  0  0  0
   53.2692   -3.9609   -8.2177 C   0  0  0  0  0  0  0  0  0  0  0  0
   52.8299   -3.6945   -9.3852 O   0  0  0  0  0  0  0  0  0  0  0  0
   52.7355   -4.4033   -6.2089 H   0  0  0  0  0  0  0  0  0  0  0  0
   50.9146   -4.1589   -7.3717 C   0  0  0  0  0  0  0  0  0  0  0  0
   50.4109   -2.7926   -7.0910 C   0  0  0  0  0  0  0  0  0  0  0  0
   50.7639   -1.7237   -7.9841 N   0  0  0  0  0  0  0  0  0  0  0  0
   49.6941   -2.5003   -6.1237 O   0  0  0  0  0  0  0  0  0  0  0  0
   51.6492   -1.8155   -8.5093 H   0  0  0  0  0  0  0  0  0  0  0  0
   50.1574   -0.8794   -8.1075 H   0  0  0  0  0  0  0  0  0  0  0  0
   50.2124   -5.1283   -6.4693 C   0  0  0  0  0  0  0  0  0  0  0  0
   50.5459   -5.2048   -3.9535 C   0  0  0  0  0  0  0  0  0  0  0  0
   50.9365   -5.6615   -5.3069 C   0  0  0  0  0  0  0  0  0  0  0  0
   55.6414   -3.6226   -9.0238 C   0  0  0  0  0  0  0  0  0  0  0  0
   56.1694   -4.5868   -9.9900 C   0  0  0  0  0  0  0  0  0  0  0  0
   57.6458   -4.9032   -9.5972 C   0  0  0  0  0  0  0  0  0  0  0  0
   56.2910   -4.1126  -11.4113 C   0  0  0  0  0  0  0  0  0  0  0  0
 26 27  1  0  0  0
 27 25  1  0  0  0
 25 19  1  0  0  0
 19 15  1  0  0  0
 15 16  1  0  0  0
 16 17  2  0  0  0
 16  1  1  0  0  0
  1 28  1  0  0  0
 28 29  1  0  0  0
 29 30  1  0  0  0
 29 31  1  0  0  0
  1  2  1  0  0  0
  2  3  1  0  0  0
  3  4  2  0  0  0
  3  5  1  0  0  0
  5  8  1  0  0  0
  8  9  2  0  0  0
  9 10  1  0  0  0
 10 11  2  0  0  0
 11 12  1  0  0  0
 11 13  1  0  0  0
 13 14  2  0  0  0
 19 20  1  0  0  0
 20 21  1  0  0  0
 20 22  2  0  0  0
 14  8  1  0  0  0
 15 18  1  0  0  0
  2  6  1  0  0  0
  5  7  1  0  0  0
 21 23  1  0  0  0
 21 24  1  0  0  0
M  END
> <minimizedAffinity>
-7.42093

> <CNNscore>
0.5639752150

> <CNNaffinity>
6.6885962486

> <CNN_VS>
3.7722024918

> <CNNaffinity_variance>
0.0380316488

$$$$
[H]c1c([H])c(N([H])C(=O)N([H])[C@]([H])(C(=O)N([H])[C@]([H])(C(=O)N([H])[H])C([H])([H])C([H])([H])C([H])([H])[H])C([H])([H])C([H])(C([H])([H])[H])C([H])([H])[H])c([H])c([H])c1Br


 31 31  0  0  0  0  0  0  0  0999 V2000
   55.4346   -4.1619  -11.3431 C   0  0  0  0  0  0  0  0  0  0  0  0
   54.3938   -3.3618  -10.7087 N   0  0  0  0  0  0  0  0  0  0  0  0
   53.7217   -3.8686   -9.5722 C   0  0  0  0  0  0  0  0  0  0  0  0
   54.0224   -5.0158   -9.1056 O   0  0  0  0  0  0  0  0  0  0  0  0
   52.7211   -3.1213   -8.9459 N   0  0  0  0  0  0  0  0  0  0  0  0
   54.1625   -2.4491  -11.0896 H   0  0  0  0  0  0  0  0  0  0  0  0
   52.5244   -2.1715   -9.4044 H   0  0  0  0  0  0  0  0  0  0  0  0
   51.9577   -3.4540   -7.8048 C   0  0  0  0  0  0  0  0  0  0  0  0
   52.1819   -4.5130   -6.9684 C   0  0  0  0  0  0  0  0  0  0  0  0
   51.3541   -4.7814   -5.8629 C   0  0  0  0  0  0  0  0  0  0  0  0
   50.2756   -3.9860   -5.5705 C   0  0  0  0  0  0  0  0  0  0  0  0
   49.1515   -4.3523   -4.0677 Br  0  0  0  0  0  0  0  0  0  0  0  0
   50.0386   -2.9202   -6.4000 C   0  0  0  0  0  0  0  0  0  0  0  0
   50.8461   -2.6575   -7.4797 C   0  0  0  0  0  0  0  0  0  0  0  0
   56.8938   -5.1283   -9.5477 N   0  0  0  0  0  0  0  0  0  0  0  0
   56.6145   -4.0759  -10.4826 C   0  0  0  0  0  0  0  0  0  0  0  0
   57.3933   -3.0678  -10.5486 O   0  0  0  0  0  0  0  0  0  0  0  0
   56.2445   -5.9384   -9.5288 H   0  0  0  0  0  0  0  0  0  0  0  0
   58.0370   -5.0619   -8.6650 C   0  0  0  0  0  0  0  0  0  0  0  0
   59.1741   -5.7923   -9.2757 C   0  0  0  0  0  0  0  0  0  0  0  0
   60.0575   -6.5412   -8.4251 N   0  0  0  0  0  0  0  0  0  0  0  0
   59.4224   -5.8038  -10.4895 O   0  0  0  0  0  0  0  0  0  0  0  0
   60.1532   -6.2277   -7.4450 H   0  0  0  0  0  0  0  0  0  0  0  0
   60.5894   -7.3736   -8.7715 H   0  0  0  0  0  0  0  0  0  0  0  0
   57.7165   -5.6860   -7.3404 C   0  0  0  0  0  0  0  0  0  0  0  0
   55.6629   -6.4834   -6.0780 C   0  0  0  0  0  0  0  0  0  0  0  0
   56.4232   -5.3821   -6.7119 C   0  0  0  0  0  0  0  0  0  0  0  0
   55.5711   -3.8428  -12.7735 C   0  0  0  0  0  0  0  0  0  0  0  0
   56.5052   -4.5747  -13.6300 C   0  0  0  0  0  0  0  0  0  0  0  0
   57.6562   -3.6005  -14.0305 C   0  0  0  0  0  0  0  0  0  0  0  0
   55.9746   -5.0367  -14.9584 C   0  0  0  0  0  0  0  0  0  0  0  0
 26 27  1  0  0  0
 27 25  1  0  0  0
 25 19  1  0  0  0
 19 15  1  0  0  0
 15 16  1  0  0  0
 16 17  2  0  0  0
 16  1  1  0  0  0
  1 28  1  0  0  0
 28 29  1  0  0  0
 29 30  1  0  0  0
 29 31  1  0  0  0
  1  2  1  0  0  0
  2  3  1  0  0  0
  3  4  2  0  0  0
  3  5  1  0  0  0
  5  8  1  0  0  0
  8  9  2  0  0  0
  9 10  1  0  0  0
 10 11  2  0  0  0
 11 12  1  0  0  0
 11 13  1  0  0  0
 13 14  2  0  0  0
 19 20  1  0  0  0
 20 21  1  0  0  0
 20 22  2  0  0  0
 14  8  1  0  0  0
 15 18  1  0  0  0
  2  6  1  0  0  0
  5  7  1  0  0  0
 21 23  1  0  0  0
 21 24  1  0  0  0
M  END
> <minimizedAffinity>
-6.50332

> <CNNscore>
0.4744532108

> <CNNaffinity>
6.3604001999

> <CNN_VS>
3.0177123547

> <CNNaffinity_variance>
0.1240465790

$$$$
[H]c1c([H])c(N([H])C(=O)N([H])[C@]([H])(C(=O)N([H])[C@]([H])(C(=O)N([H])[H])C([H])([H])C([H])([H])C([H])([H])[H])C([H])([H])C([H])(C([H])([H])[H])C([H])([H])[H])c([H])c([H])c1Br


 31 31  0  0  0  0  0  0  0  0999 V2000
   54.3946   -5.0216   -7.8396 C   0  0  0  0  0  0  0  0  0  0  0  0
   54.4358   -4.3055   -9.1089 N   0  0  0  0  0  0  0  0  0  0  0  0
   55.5978   -4.3784   -9.9118 C   0  0  0  0  0  0  0  0  0  0  0  0
   56.6017   -5.0643   -9.5298 O   0  0  0  0  0  0  0  0  0  0  0  0
   55.6621   -3.7018  -11.1325 N   0  0  0  0  0  0  0  0  0  0  0  0
   53.6300   -3.7618   -9.4029 H   0  0  0  0  0  0  0  0  0  0  0  0
   54.7794   -3.1430  -11.3768 H   0  0  0  0  0  0  0  0  0  0  0  0
   56.7220   -3.6687  -12.0659 C   0  0  0  0  0  0  0  0  0  0  0  0
   58.0567   -3.6977  -11.7680 C   0  0  0  0  0  0  0  0  0  0  0  0
   59.0472   -3.6392  -12.7654 C   0  0  0  0  0  0  0  0  0  0  0  0
   58.7166   -3.5504  -14.0936 C   0  0  0  0  0  0  0  0  0  0  0  0
   60.0642   -3.4708  -15.4479 Br  0  0  0  0  0  0  0  0  0  0  0  0
   57.3822   -3.5208  -14.4076 C   0  0  0  0  0  0  0  0  0  0  0  0
   56.4145   -3.5776  -13.4345 C   0  0  0  0  0  0  0  0  0  0  0  0
   52.2778   -4.2262   -6.7566 N   0  0  0  0  0  0  0  0  0  0  0  0
   52.9822   -5.2206   -7.5145 C   0  0  0  0  0  0  0  0  0  0  0  0
   52.3726   -6.2761   -7.8905 O   0  0  0  0  0  0  0  0  0  0  0  0
   52.8026   -3.3751   -6.4765 H   0  0  0  0  0  0  0  0  0  0  0  0
   50.8888   -4.4039   -6.3965 C   0  0  0  0  0  0  0  0  0  0  0  0
   50.1724   -3.1139   -6.5451 C   0  0  0  0  0  0  0  0  0  0  0  0
   50.5026   -2.2580   -7.6510 N   0  0  0  0  0  0  0  0  0  0  0  0
   49.2930   -2.7130   -5.7700 O   0  0  0  0  0  0  0  0  0  0  0  0
   51.4577   -2.3294   -8.0392 H   0  0  0  0  0  0  0  0  0  0  0  0
   49.8124   -1.5839   -8.0575 H   0  0  0  0  0  0  0  0  0  0  0  0
   50.7680   -4.8635   -4.9748 C   0  0  0  0  0  0  0  0  0  0  0  0
   52.2230   -5.8063   -3.1200 C   0  0  0  0  0  0  0  0  0  0  0  0
   51.6780   -5.9120   -4.4927 C   0  0  0  0  0  0  0  0  0  0  0  0
   55.2764   -4.4031   -6.8363 C   0  0  0  0  0  0  0  0  0  0  0  0
   56.0119   -5.2156   -5.8663 C   0  0  0  0  0  0  0  0  0  0  0  0
   55.6251   -6.7093   -6.0972 C   0  0  0  0  0  0  0  0  0  0  0  0
   55.6744   -4.9982   -4.4177 C   0  0  0  0  0  0  0  0  0  0  0  0
 26 27  1  0  0  0
 27 25  1  0  0  0
 25 19  1  0  0  0
 19 15  1  0  0  0
 15 16  1  0  0  0
 16 17  2  0  0  0
 16  1  1  0  0  0
  1 28  1  0  0  0
 28 29  1  0  0  0
 29 30  1  0  0  0
 29 31  1  0  0  0
  1  2  1  0  0  0
  2  3  1  0  0  0
  3  4  2  0  0  0
  3  5  1  0  0  0
  5  8  1  0  0  0
  8  9  2  0  0  0
  9 10  1  0  0  0
 10 11  2  0  0  0
 11 12  1  0  0  0
 11 13  1  0  0  0
 13 14  2  0  0  0
 19 20  1  0  0  0
 20 21  1  0  0  0
 20 22  2  0  0  0
 14  8  1  0  0  0
 15 18  1  0  0  0
  2  6  1  0  0  0
  5  7  1  0  0  0
 21 23  1  0  0  0
 21 24  1  0  0  0
M  END
> <minimizedAffinity>
-7.02976

> <CNNscore>
0.4108245075

> <CNNaffinity>
6.2739787102

> <CNN_VS>
2.5775041580

> <CNNaffinity_variance>
0.0275356285

$$$$
[H]c1c([H])c(N([H])C(=O)N([H])[C@]([H])(C(=O)N([H])[C@]([H])(C(=O)N([H])[H])C([H])([H])C([H])([H])C([H])([H])[H])C([H])([H])C([H])(C([H])([H])[H])C([H])([H])[H])c([H])c([H])c1Br


 31 31  0  0  0  0  0  0  0  0999 V2000
   61.3117   -7.4247   -9.5679 C   0  0  0  0  0  0  0  0  0  0  0  0
   60.5005   -6.6284   -8.6549 N   0  0  0  0  0  0  0  0  0  0  0  0
   59.2390   -6.1511   -9.0804 C   0  0  0  0  0  0  0  0  0  0  0  0
   58.8137   -6.4140  -10.2526 O   0  0  0  0  0  0  0  0  0  0  0  0
   58.4424   -5.3865   -8.2243 N   0  0  0  0  0  0  0  0  0  0  0  0
   60.8498   -6.4249   -7.7232 H   0  0  0  0  0  0  0  0  0  0  0  0
   58.8757   -5.2049   -7.2598 H   0  0  0  0  0  0  0  0  0  0  0  0
   57.1624   -4.8402   -8.4665 C   0  0  0  0  0  0  0  0  0  0  0  0
   56.7015   -4.3739   -9.6670 C   0  0  0  0  0  0  0  0  0  0  0  0
   55.4143   -3.8248   -9.8119 C   0  0  0  0  0  0  0  0  0  0  0  0
   54.5552   -3.7319   -8.7467 C   0  0  0  0  0  0  0  0  0  0  0  0
   52.8061   -2.9851   -8.9453 Br  0  0  0  0  0  0  0  0  0  0  0  0
   55.0034   -4.1958   -7.5367 C   0  0  0  0  0  0  0  0  0  0  0  0
   56.2600   -4.7318   -7.3943 C   0  0  0  0  0  0  0  0  0  0  0  0
   61.0871   -9.7063   -8.5528 N   0  0  0  0  0  0  0  0  0  0  0  0
   61.8701   -8.5259   -8.7832 C   0  0  0  0  0  0  0  0  0  0  0  0
   63.0446   -8.4424   -8.2928 O   0  0  0  0  0  0  0  0  0  0  0  0
   60.1396   -9.7440   -8.9760 H   0  0  0  0  0  0  0  0  0  0  0  0
   61.5993  -10.8017   -7.7602 C   0  0  0  0  0  0  0  0  0  0  0  0
   62.3615  -11.7271   -8.6330 C   0  0  0  0  0  0  0  0  0  0  0  0
   63.7974  -11.6758   -8.6158 N   0  0  0  0  0  0  0  0  0  0  0  0
   61.8401  -12.5572   -9.3907 O   0  0  0  0  0  0  0  0  0  0  0  0
   64.2383  -10.7766   -8.3608 H   0  0  0  0  0  0  0  0  0  0  0  0
   64.3862  -12.5092   -8.8500 H   0  0  0  0  0  0  0  0  0  0  0  0
   60.4754  -11.5576   -7.1180 C   0  0  0  0  0  0  0  0  0  0  0  0
   60.3203  -12.4253   -4.7369 C   0  0  0  0  0  0  0  0  0  0  0  0
   60.7979  -12.5950   -6.1283 C   0  0  0  0  0  0  0  0  0  0  0  0
   62.2210   -6.5837  -10.3632 C   0  0  0  0  0  0  0  0  0  0  0  0
   62.8185   -7.0742  -11.6060 C   0  0  0  0  0  0  0  0  0  0  0  0
   64.3397   -7.3076  -11.3499 C   0  0  0  0  0  0  0  0  0  0  0  0
   62.8127   -6.1255  -12.7720 C   0  0  0  0  0  0  0  0  0  0  0  0
 26 27  1  0  0  0
 27 25  1  0  0  0
 25 19  1  0  0  0
 19 15  1  0  0  0
 15 16  1  0  0  0
 16 17  2  0  0  0
 16  1  1  0  0  0
  1 28  1  0  0  0
 28 29  1  0  0  0
 29 30  1  0  0  0
 29 31  1  0  0  0
  1  2  1  0  0  0
  2  3  1  0  0  0
  3  4  2  0  0  0
  3  5  1  0  0  0
  5  8  1  0  0  0
  8  9  2  0  0  0
  9 10  1  0  0  0
 10 11  2  0  0  0
 11 12  1  0  0  0
 11 13  1  0  0  0
 13 14  2  0  0  0
 19 20  1  0  0  0
 20 21  1  0  0  0
 20 22  2  0  0  0
 14  8  1  0  0  0
 15 18  1  0  0  0
  2  6  1  0  0  0
  5  7  1  0  0  0
 21 23  1  0  0  0
 21 24  1  0  0  0
M  END
> <minimizedAffinity>
-6.12859

> <CNNscore>
0.3651829362

> <CNNaffinity>
4.8206682205

> <CNN_VS>
1.7604258060

> <CNNaffinity_variance>
0.1063499674

$$$$
[H]c1c([H])c(N([H])C(=O)N([H])[C@]([H])(C(=O)N([H])[C@]([H])(C(=O)N([H])[H])C([H])([H])C([H])([H])C([H])([H])[H])C([H])([H])C([H])(C([H])([H])[H])C([H])([H])[H])c([H])c([H])c1Br


 31 31  0  0  0  0  0  0  0  0999 V2000
   61.7458   -6.8922   -9.6697 C   0  0  0  0  0  0  0  0  0  0  0  0
   60.6876   -6.5889   -8.7137 N   0  0  0  0  0  0  0  0  0  0  0  0
   59.5271   -5.9097   -9.1523 C   0  0  0  0  0  0  0  0  0  0  0  0
   59.4064   -5.5648  -10.3731 O   0  0  0  0  0  0  0  0  0  0  0  0
   58.4987   -5.6078   -8.2561 N   0  0  0  0  0  0  0  0  0  0  0  0
   60.7949   -6.8683   -7.7432 H   0  0  0  0  0  0  0  0  0  0  0  0
   58.6814   -5.9259   -7.2479 H   0  0  0  0  0  0  0  0  0  0  0  0
   57.2725   -4.9541   -8.5110 C   0  0  0  0  0  0  0  0  0  0  0  0
   56.7286   -4.7179   -9.7436 C   0  0  0  0  0  0  0  0  0  0  0  0
   55.5075   -4.0380   -9.9046 C   0  0  0  0  0  0  0  0  0  0  0  0
   54.8004   -3.5775   -8.8232 C   0  0  0  0  0  0  0  0  0  0  0  0
   53.1409   -2.6533   -9.0438 Br  0  0  0  0  0  0  0  0  0  0  0  0
   55.3332   -3.8074   -7.5809 C   0  0  0  0  0  0  0  0  0  0  0  0
   56.5254   -4.4709   -7.4228 C   0  0  0  0  0  0  0  0  0  0  0  0
   62.6827   -9.2013   -9.9474 N   0  0  0  0  0  0  0  0  0  0  0  0
   61.5763   -8.2935  -10.0542 C   0  0  0  0  0  0  0  0  0  0  0  0
   60.4553   -8.7144  -10.4938 O   0  0  0  0  0  0  0  0  0  0  0  0
   63.5769   -8.8266   -9.5757 H   0  0  0  0  0  0  0  0  0  0  0  0
   62.5559  -10.5861  -10.3433 C   0  0  0  0  0  0  0  0  0  0  0  0
   62.3577  -11.4270   -9.1379 C   0  0  0  0  0  0  0  0  0  0  0  0
   61.3466  -12.4478   -9.1602 N   0  0  0  0  0  0  0  0  0  0  0  0
   63.0131  -11.3109   -8.0930 O   0  0  0  0  0  0  0  0  0  0  0  0
   60.5391  -12.3038   -9.7888 H   0  0  0  0  0  0  0  0  0  0  0  0
   61.4128  -13.3086   -8.5680 H   0  0  0  0  0  0  0  0  0  0  0  0
   63.7923  -11.0454  -11.0557 C   0  0  0  0  0  0  0  0  0  0  0  0
   64.1910  -13.4637  -11.7186 C   0  0  0  0  0  0  0  0  0  0  0  0
   63.6740  -12.1173  -12.0541 C   0  0  0  0  0  0  0  0  0  0  0  0
   63.0610   -6.4397   -9.1881 C   0  0  0  0  0  0  0  0  0  0  0  0
   63.3241   -6.2501   -7.7609 C   0  0  0  0  0  0  0  0  0  0  0  0
   64.4156   -5.1449   -7.6148 C   0  0  0  0  0  0  0  0  0  0  0  0
   63.9245   -7.4182   -7.0296 C   0  0  0  0  0  0  0  0  0  0  0  0
 26 27  1  0  0  0
 27 25  1  0  0  0
 25 19  1  0  0  0
 19 15  1  0  0  0
 15 16  1  0  0  0
 16 17  2  0  0  0
 16  1  1  0  0  0
  1 28  1  0  0  0
 28 29  1  0  0  0
 29 30  1  0  0  0
 29 31  1  0  0  0
  1  2  1  0  0  0
  2  3  1  0  0  0
  3  4  2  0  0  0
  3  5  1  0  0  0
  5  8  1  0  0  0
  8  9  2  0  0  0
  9 10  1  0  0  0
 10 11  2  0  0  0
 11 12  1  0  0  0
 11 13  1  0  0  0
 13 14  2  0  0  0
 19 20  1  0  0  0
 20 21  1  0  0  0
 20 22  2  0  0  0
 14  8  1  0  0  0
 15 18  1  0  0  0
  2  6  1  0  0  0
  5  7  1  0  0  0
 21 23  1  0  0  0
 21 24  1  0  0  0
M  END
> <minimizedAffinity>
-5.92201

> <CNNscore>
0.3497527838

> <CNNaffinity>
4.8235063553

> <CNN_VS>
1.6870347261

> <CNNaffinity_variance>
0.0654267892

$$$$
[H]c1c([H])c(N([H])C(=O)N([H])[C@]([H])(C(=O)N([H])[C@]([H])(C(=O)N([H])[H])C([H])([H])C([H])([H])C([H])([H])[H])C([H])([H])C([H])(C([H])([H])[H])C([H])([H])[H])c([H])c([H])c1Br


 31 31  0  0  0  0  0  0  0  0999 V2000
   61.4502   -6.9560   -9.5426 C   0  0  0  0  0  0  0  0  0  0  0  0
   60.4920   -6.4144   -8.5864 N   0  0  0  0  0  0  0  0  0  0  0  0
   59.2625   -5.8933   -9.0522 C   0  0  0  0  0  0  0  0  0  0  0  0
   58.9932   -5.8963  -10.2978 O   0  0  0  0  0  0  0  0  0  0  0  0
   58.3274   -5.3691   -8.1562 N   0  0  0  0  0  0  0  0  0  0  0  0
   60.7176   -6.4169   -7.5961 H   0  0  0  0  0  0  0  0  0  0  0  0
   58.6336   -5.3977   -7.1284 H   0  0  0  0  0  0  0  0  0  0  0  0
   57.0540   -4.8231   -8.4319 C   0  0  0  0  0  0  0  0  0  0  0  0
   56.6206   -4.3676   -9.6467 C   0  0  0  0  0  0  0  0  0  0  0  0
   55.3379   -3.8178   -9.8253 C   0  0  0  0  0  0  0  0  0  0  0  0
   54.4556   -3.7134   -8.7802 C   0  0  0  0  0  0  0  0  0  0  0  0
   52.7127   -2.9658   -9.0246 Br  0  0  0  0  0  0  0  0  0  0  0  0
   54.8761   -4.1664   -7.5563 C   0  0  0  0  0  0  0  0  0  0  0  0
   56.1283   -4.7030   -7.3810 C   0  0  0  0  0  0  0  0  0  0  0  0
   61.5318   -9.1093   -8.2609 N   0  0  0  0  0  0  0  0  0  0  0  0
   61.3139   -8.4118   -9.4960 C   0  0  0  0  0  0  0  0  0  0  0  0
   61.0124   -9.0690  -10.5468 O   0  0  0  0  0  0  0  0  0  0  0  0
   61.7651   -8.5414   -7.4235 H   0  0  0  0  0  0  0  0  0  0  0  0
   61.4304  -10.5497   -8.1865 C   0  0  0  0  0  0  0  0  0  0  0  0
   60.8624  -10.9364   -6.8723 C   0  0  0  0  0  0  0  0  0  0  0  0
   60.7833   -9.9495   -5.8308 N   0  0  0  0  0  0  0  0  0  0  0  0
   60.4431  -12.0704   -6.6019 O   0  0  0  0  0  0  0  0  0  0  0  0
   61.4702   -9.1777   -5.8538 H   0  0  0  0  0  0  0  0  0  0  0  0
   60.0632   -9.9982   -5.0725 H   0  0  0  0  0  0  0  0  0  0  0  0
   62.7819  -11.1811   -8.3341 C   0  0  0  0  0  0  0  0  0  0  0  0
   64.9917  -10.1896   -9.0958 C   0  0  0  0  0  0  0  0  0  0  0  0
   63.9737  -10.3743   -8.0365 C   0  0  0  0  0  0  0  0  0  0  0  0
   62.7852   -6.3595   -9.3732 C   0  0  0  0  0  0  0  0  0  0  0  0
   63.9406   -6.8570  -10.1212 C   0  0  0  0  0  0  0  0  0  0  0  0
   65.2162   -6.1554   -9.5600 C   0  0  0  0  0  0  0  0  0  0  0  0
   63.9857   -6.5211  -11.5857 C   0  0  0  0  0  0  0  0  0  0  0  0
 26 27  1  0  0  0
 27 25  1  0  0  0
 25 19  1  0  0  0
 19 15  1  0  0  0
 15 16  1  0  0  0
 16 17  2  0  0  0
 16  1  1  0  0  0
  1 28  1  0  0  0
 28 29  1  0  0  0
 29 30  1  0  0  0
 29 31  1  0  0  0
  1  2  1  0  0  0
  2  3  1  0  0  0
  3  4  2  0  0  0
  3  5  1  0  0  0
  5  8  1  0  0  0
  8  9  2  0  0  0
  9 10  1  0  0  0
 10 11  2  0  0  0
 11 12  1  0  0  0
 11 13  1  0  0  0
 13 14  2  0  0  0
 19 20  1  0  0  0
 20 21  1  0  0  0
 20 22  2  0  0  0
 14  8  1  0  0  0
 15 18  1  0  0  0
  2  6  1  0  0  0
  5  7  1  0  0  0
 21 23  1  0  0  0
 21 24  1  0  0  0
M  END
> <minimizedAffinity>
-5.97202

> <CNNscore>
0.3042068779

> <CNNaffinity>
4.6305532455

> <CNN_VS>
1.4086461067

> <CNNaffinity_variance>
0.2752662003

$$$$
[H]c1c([H])c(N([H])C(=O)N([H])[C@]([H])(C(=O)N([H])[C@]([H])(C(=O)N([H])[H])C([H])([H])C([H])([H])C([H])([H])[H])C([H])([H])C([H])(C([H])([H])[H])C([H])([H])[H])c([H])c([H])c1Br


 31 31  0  0  0  0  0  0  0  0999 V2000
   56.6027   -3.7692  -10.4005 C   0  0  0  0  0  0  0  0  0  0  0  0
   55.2340   -4.2589  -10.2885 N   0  0  0  0  0  0  0  0  0  0  0  0
   54.3863   -3.7327   -9.2861 C   0  0  0  0  0  0  0  0  0  0  0  0
   54.8144   -2.8377   -8.4864 O   0  0  0  0  0  0  0  0  0  0  0  0
   53.0705   -4.1849   -9.1583 N   0  0  0  0  0  0  0  0  0  0  0  0
   54.9038   -4.9727  -10.9312 H   0  0  0  0  0  0  0  0  0  0  0  0
   52.7915   -4.9427   -9.8647 H   0  0  0  0  0  0  0  0  0  0  0  0
   52.0832   -3.7714   -8.2365 C   0  0  0  0  0  0  0  0  0  0  0  0
   51.4155   -2.5777   -8.2552 C   0  0  0  0  0  0  0  0  0  0  0  0
   50.4589   -2.2402   -7.2803 C   0  0  0  0  0  0  0  0  0  0  0  0
   50.1491   -3.1008   -6.2581 C   0  0  0  0  0  0  0  0  0  0  0  0
   48.8488   -2.6404   -4.9338 Br  0  0  0  0  0  0  0  0  0  0  0  0
   50.8103   -4.3016   -6.2265 C   0  0  0  0  0  0  0  0  0  0  0  0
   51.7445   -4.6318   -7.1777 C   0  0  0  0  0  0  0  0  0  0  0  0
   57.2219   -3.3614  -12.7957 N   0  0  0  0  0  0  0  0  0  0  0  0
   57.1206   -4.2569  -11.6788 C   0  0  0  0  0  0  0  0  0  0  0  0
   57.4743   -5.4751  -11.8131 O   0  0  0  0  0  0  0  0  0  0  0  0
   56.9351   -2.3745  -12.6472 H   0  0  0  0  0  0  0  0  0  0  0  0
   57.7051   -3.8175  -14.0798 C   0  0  0  0  0  0  0  0  0  0  0  0
   59.1043   -3.3640  -14.2690 C   0  0  0  0  0  0  0  0  0  0  0  0
   59.3999   -2.4441  -15.3326 N   0  0  0  0  0  0  0  0  0  0  0  0
   60.0553   -3.7278  -13.5631 O   0  0  0  0  0  0  0  0  0  0  0  0
   58.7784   -2.4561  -16.1583 H   0  0  0  0  0  0  0  0  0  0  0  0
   60.2097   -1.7823  -15.2861 H   0  0  0  0  0  0  0  0  0  0  0  0
   56.8622   -3.2613  -15.1875 C   0  0  0  0  0  0  0  0  0  0  0  0
   57.0278   -4.1714  -17.5520 C   0  0  0  0  0  0  0  0  0  0  0  0
   56.3687   -4.1766  -16.2260 C   0  0  0  0  0  0  0  0  0  0  0  0
   57.3752   -4.0260   -9.1742 C   0  0  0  0  0  0  0  0  0  0  0  0
   57.6753   -5.3899   -8.7362 C   0  0  0  0  0  0  0  0  0  0  0  0
   57.1364   -5.5584   -7.2818 C   0  0  0  0  0  0  0  0  0  0  0  0
   59.1296   -5.7456   -8.6022 C   0  0  0  0  0  0  0  0  0  0  0  0
 26 27  1  0  0  0
 27 25  1  0  0  0
 25 19  1  0  0  0
 19 15  1  0  0  0
 15 16  1  0  0  0
 16 17  2  0  0  0
 16  1  1  0  0  0
  1 28  1  0  0  0
 28 29  1  0  0  0
 29 30  1  0  0  0
 29 31  1  0  0  0
  1  2  1  0  0  0
  2  3  1  0  0  0
  3  4  2  0  0  0
  3  5  1  0  0  0
  5  8  1  0  0  0
  8  9  2  0  0  0
  9 10  1  0  0  0
 10 11  2  0  0  0
 11 12  1  0  0  0
 11 13  1  0  0  0
 13 14  2  0  0  0
 19 20  1  0  0  0
 20 21  1  0  0  0
 20 22  2  0  0  0
 14  8  1  0  0  0
 15 18  1  0  0  0
  2  6  1  0  0  0
  5  7  1  0  0  0
 21 23  1  0  0  0
 21 24  1  0  0  0
M  END
> <minimizedAffinity>
-6.83684

> <CNNscore>
0.2897385359

> <CNNaffinity>
5.8507781029

> <CNN_VS>
1.6951959133

> <CNNaffinity_variance>
0.0951865017

$$$$
[H]c1c([H])c(N([H])C(=O)N([H])[C@]([H])(C(=O)N([H])[C@]([H])(C(=O)N([H])[H])C([H])([H])C([H])([H])C([H])([H])[H])C([H])([H])C([H])(C([H])([H])[H])C([H])([H])[H])c([H])c([H])c1Br


 31 31  0  0  0  0  0  0  0  0999 V2000
   56.5880   -3.8099  -10.3286 C   0  0  0  0  0  0  0  0  0  0  0  0
   55.1331   -3.8534  -10.4128 N   0  0  0  0  0  0  0  0  0  0  0  0
   54.3625   -3.6809   -9.2395 C   0  0  0  0  0  0  0  0  0  0  0  0
   54.9342   -3.4890   -8.1169 O   0  0  0  0  0  0  0  0  0  0  0  0
   52.9669   -3.7179   -9.2937 N   0  0  0  0  0  0  0  0  0  0  0  0
   54.6885   -4.0073  -11.3129 H   0  0  0  0  0  0  0  0  0  0  0  0
   52.5656   -3.8905  -10.2736 H   0  0  0  0  0  0  0  0  0  0  0  0
   52.0403   -3.5540   -8.2400 C   0  0  0  0  0  0  0  0  0  0  0  0
   51.8360   -4.4263   -7.2063 C   0  0  0  0  0  0  0  0  0  0  0  0
   50.8728   -4.1911   -6.2082 C   0  0  0  0  0  0  0  0  0  0  0  0
   50.0883   -3.0660   -6.2261 C   0  0  0  0  0  0  0  0  0  0  0  0
   48.7795   -2.7479   -4.8688 Br  0  0  0  0  0  0  0  0  0  0  0  0
   50.2822   -2.1821   -7.2562 C   0  0  0  0  0  0  0  0  0  0  0  0
   51.2222   -2.4111   -8.2312 C   0  0  0  0  0  0  0  0  0  0  0  0
   56.4592   -3.9386  -12.8293 N   0  0  0  0  0  0  0  0  0  0  0  0
   57.0737   -3.4043  -11.6476 C   0  0  0  0  0  0  0  0  0  0  0  0
   58.0465   -2.5865  -11.7573 O   0  0  0  0  0  0  0  0  0  0  0  0
   55.6632   -4.5932  -12.7023 H   0  0  0  0  0  0  0  0  0  0  0  0
   56.9319   -3.5784  -14.1474 C   0  0  0  0  0  0  0  0  0  0  0  0
   56.2887   -4.4532  -15.1575 C   0  0  0  0  0  0  0  0  0  0  0  0
   55.8259   -3.8722  -16.3876 N   0  0  0  0  0  0  0  0  0  0  0  0
   56.1180   -5.6720  -15.0150 O   0  0  0  0  0  0  0  0  0  0  0  0
   55.5603   -2.8736  -16.3717 H   0  0  0  0  0  0  0  0  0  0  0  0
   55.7558   -4.4271  -17.2725 H   0  0  0  0  0  0  0  0  0  0  0  0
   58.4186   -3.7468  -14.2379 C   0  0  0  0  0  0  0  0  0  0  0  0
   59.4136   -3.4204  -16.5509 C   0  0  0  0  0  0  0  0  0  0  0  0
   59.1672   -2.9074  -15.1838 C   0  0  0  0  0  0  0  0  0  0  0  0
   57.1347   -5.0295   -9.7121 C   0  0  0  0  0  0  0  0  0  0  0  0
   57.9417   -4.9690   -8.4926 C   0  0  0  0  0  0  0  0  0  0  0  0
   59.2543   -5.7743   -8.7431 C   0  0  0  0  0  0  0  0  0  0  0  0
   57.3643   -5.6325   -7.2736 C   0  0  0  0  0  0  0  0  0  0  0  0
 26 27  1  0  0  0
 27 25  1  0  0  0
 25 19  1  0  0  0
 19 15  1  0  0  0
 15 16  1  0  0  0
 16 17  2  0  0  0
 16  1  1  0  0  0
  1 28  1  0  0  0
 28 29  1  0  0  0
 29 30  1  0  0  0
 29 31  1  0  0  0
  1  2  1  0  0  0
  2  3  1  0  0  0
  3  4  2  0  0  0
  3  5  1  0  0  0
  5  8  1  0  0  0
  8  9  2  0  0  0
  9 10  1  0  0  0
 10 11  2  0  0  0
 11 12  1  0  0  0
 11 13  1  0  0  0
 13 14  2  0  0  0
 19 20  1  0  0  0
 20 21  1  0  0  0
 20 22  2  0  0  0
 14  8  1  0  0  0
 15 18  1  0  0  0
  2  6  1  0  0  0
  5  7  1  0  0  0
 21 23  1  0  0  0
 21 24  1  0  0  0
M  END
> <minimizedAffinity>
-7.31555

> <CNNscore>
0.2545737624

> <CNNaffinity>
5.8279151917

> <CNN_VS>
1.4836343527

> <CNNaffinity_variance>
0.0821941495

$$$$
[H]c1c([H])c(N([H])C(=O)N([H])[C@]([H])(C(=O)N([H])[C@]([H])(C(=O)N([H])[H])C([H])([H])C([H])([H])C([H])([H])[H])C([H])([H])C([H])(C([H])([H])[H])C([H])([H])[H])c([H])c([H])c1Br


 31 31  0  0  0  0  0  0  0  0999 V2000
   52.4110   -6.3153   -4.8265 C   0  0  0  0  0  0  0  0  0  0  0  0
   53.6410   -5.5815   -5.0996 N   0  0  0  0  0  0  0  0  0  0  0  0
   54.1840   -5.5945   -6.4054 C   0  0  0  0  0  0  0  0  0  0  0  0
   53.6037   -6.2423   -7.3369 O   0  0  0  0  0  0  0  0  0  0  0  0
   55.3612   -4.8991   -6.6929 N   0  0  0  0  0  0  0  0  0  0  0  0
   54.0949   -5.0691   -4.3493 H   0  0  0  0  0  0  0  0  0  0  0  0
   55.7895   -4.3864   -5.8534 H   0  0  0  0  0  0  0  0  0  0  0  0
   56.0382   -4.7868   -7.9276 C   0  0  0  0  0  0  0  0  0  0  0  0
   57.2862   -5.2720   -8.2072 C   0  0  0  0  0  0  0  0  0  0  0  0
   57.8935   -5.0948   -9.4638 C   0  0  0  0  0  0  0  0  0  0  0  0
   57.2559   -4.4221  -10.4749 C   0  0  0  0  0  0  0  0  0  0  0  0
   58.0829   -4.1819  -12.1821 Br  0  0  0  0  0  0  0  0  0  0  0  0
   56.0038   -3.9303  -10.2094 C   0  0  0  0  0  0  0  0  0  0  0  0
   55.4101   -4.1026   -8.9828 C   0  0  0  0  0  0  0  0  0  0  0  0
   51.2693   -4.3348   -5.8566 N   0  0  0  0  0  0  0  0  0  0  0  0
   51.3843   -5.7575   -5.7067 C   0  0  0  0  0  0  0  0  0  0  0  0
   50.5825   -6.5247   -6.3356 O   0  0  0  0  0  0  0  0  0  0  0  0
   51.9454   -3.7414   -5.3381 H   0  0  0  0  0  0  0  0  0  0  0  0
   50.2492   -3.7505   -6.6983 C   0  0  0  0  0  0  0  0  0  0  0  0
   50.8669   -2.7420   -7.5930 C   0  0  0  0  0  0  0  0  0  0  0  0
   50.2178   -1.4712   -7.7622 N   0  0  0  0  0  0  0  0  0  0  0  0
   51.9223   -2.9190   -8.2174 O   0  0  0  0  0  0  0  0  0  0  0  0
   49.1933   -1.4391   -7.6299 H   0  0  0  0  0  0  0  0  0  0  0  0
   50.7495   -0.6041   -8.0096 H   0  0  0  0  0  0  0  0  0  0  0  0
   49.1994   -3.0796   -5.8648 C   0  0  0  0  0  0  0  0  0  0  0  0
   48.6719   -4.4063   -3.7652 C   0  0  0  0  0  0  0  0  0  0  0  0
   49.2693   -3.2107   -4.4027 C   0  0  0  0  0  0  0  0  0  0  0  0
   52.1395   -6.4052   -3.3826 C   0  0  0  0  0  0  0  0  0  0  0  0
   53.1732   -6.0955   -2.3939 C   0  0  0  0  0  0  0  0  0  0  0  0
   53.4119   -7.3727   -1.5303 C   0  0  0  0  0  0  0  0  0  0  0  0
   52.8278   -5.0524   -1.3681 C   0  0  0  0  0  0  0  0  0  0  0  0
 26 27  1  0  0  0
 27 25  1  0  0  0
 25 19  1  0  0  0
 19 15  1  0  0  0
 15 16  1  0  0  0
 16 17  2  0  0  0
 16  1  1  0  0  0
  1 28  1  0  0  0
 28 29  1  0  0  0
 29 30  1  0  0  0
 29 31  1  0  0  0
  1  2  1  0  0  0
  2  3  1  0  0  0
  3  4  2  0  0  0
  3  5  1  0  0  0
  5  8  1  0  0  0
  8  9  2  0  0  0
  9 10  1  0  0  0
 10 11  2  0  0  0
 11 12  1  0  0  0
 11 13  1  0  0  0
 13 14  2  0  0  0
 19 20  1  0  0  0
 20 21  1  0  0  0
 20 22  2  0  0  0
 14  8  1  0  0  0
 15 18  1  0  0  0
  2  6  1  0  0  0
  5  7  1  0  0  0
 21 23  1  0  0  0
 21 24  1  0  0  0
M  END
> <minimizedAffinity>
-8.22255

> <CNNscore>
0.2511810362

> <CNNaffinity>
6.3732552528

> <CNN_VS>
1.6008408070

> <CNNaffinity_variance>
0.1264225692

$$$$
[H]OC(C([H])([H])[H])(C([H])([H])[H])C([H])([H])C(=O)N([H])C([H])([H])C([H])([H])c1c([H])c([H])c2nc([H])nc(N([H])c3c([H])c([H])c(Oc4c([H])c([H])c([H])c(C(F)(F)F)c4[H])c(Cl)c3[H])c2c1[H]


 42 45  0  0  0  0  0  0  0  0999 V2000
   51.4309   -6.7116   -3.0336 C   0  0  0  0  0  0  0  0  0  0  0  0
   50.7915   -6.0291   -2.0378 C   0  0  0  0  0  0  0  0  0  0  0  0
   49.9846   -4.9718   -2.3243 C   0  0  0  0  0  0  0  0  0  0  0  0
   49.7871   -4.5483   -3.6315 C   0  0  0  0  0  0  0  0  0  0  0  0
   48.9849   -3.4837   -3.8345 N   0  0  0  0  0  0  0  0  0  0  0  0
   48.7991   -3.0492   -5.0891 C   0  0  0  0  0  0  0  0  0  0  0  0
   49.4284   -3.7063   -6.0556 N   0  0  0  0  0  0  0  0  0  0  0  0
   50.2278   -4.7550   -5.9405 C   0  0  0  0  0  0  0  0  0  0  0  0
   50.4336   -5.2305   -4.6396 C   0  0  0  0  0  0  0  0  0  0  0  0
   51.2374   -6.2893   -4.3685 C   0  0  0  0  0  0  0  0  0  0  0  0
   50.9024   -5.3351   -7.0298 N   0  0  0  0  0  0  0  0  0  0  0  0
   50.4295   -5.9843   -7.7094 H   0  0  0  0  0  0  0  0  0  0  0  0
   52.2770   -5.1003   -7.2966 C   0  0  0  0  0  0  0  0  0  0  0  0
   53.2684   -6.0221   -7.1641 C   0  0  0  0  0  0  0  0  0  0  0  0
   54.5868   -5.7613   -7.5488 C   0  0  0  0  0  0  0  0  0  0  0  0
   54.9248   -4.5090   -8.0918 C   0  0  0  0  0  0  0  0  0  0  0  0
   53.9365   -3.5617   -8.2290 C   0  0  0  0  0  0  0  0  0  0  0  0
   54.2900   -1.9507   -8.8833 Cl  0  0  0  0  0  0  0  0  0  0  0  0
   52.6546   -3.8732   -7.8356 C   0  0  0  0  0  0  0  0  0  0  0  0
   56.2065   -4.3261   -8.4482 O   0  0  0  0  0  0  0  0  0  0  0  0
   56.9697   -4.5139   -9.5378 C   0  0  0  0  0  0  0  0  0  0  0  0
   58.2535   -5.0582   -9.3675 C   0  0  0  0  0  0  0  0  0  0  0  0
   59.0465   -5.2604  -10.4614 C   0  0  0  0  0  0  0  0  0  0  0  0
   58.5800   -4.9287  -11.7146 C   0  0  0  0  0  0  0  0  0  0  0  0
   57.3287   -4.3919  -11.9155 C   0  0  0  0  0  0  0  0  0  0  0  0
   56.5266   -4.1873  -10.8255 C   0  0  0  0  0  0  0  0  0  0  0  0
   56.9121   -4.0402  -13.2991 C   0  0  0  0  0  0  0  0  0  0  0  0
   55.9180   -3.0436  -13.2531 F   0  0  0  0  0  0  0  0  0  0  0  0
   57.9972   -3.4678  -13.9303 F   0  0  0  0  0  0  0  0  0  0  0  0
   56.4987   -5.1312  -14.0092 F   0  0  0  0  0  0  0  0  0  0  0  0
   52.3344   -7.8070   -2.7680 C   0  0  0  0  0  0  0  0  0  0  0  0
   53.0530   -7.7994   -1.4340 C   0  0  0  0  0  0  0  0  0  0  0  0
   55.6334   -6.8580   -1.5760 C   0  0  0  0  0  0  0  0  0  0  0  0
   56.1886   -6.0621   -0.7933 O   0  0  0  0  0  0  0  0  0  0  0  0
   54.3443   -7.3293   -1.5064 N   0  0  0  0  0  0  0  0  0  0  0  0
   54.1909   -6.7123   -0.2959 H   0  0  0  0  0  0  0  0  0  0  0  0
   56.5161   -7.3260   -2.7097 C   0  0  0  0  0  0  0  0  0  0  0  0
   55.5251   -5.5429   -4.0850 C   0  0  0  0  0  0  0  0  0  0  0  0
   56.0942   -6.9271   -4.0599 C   0  0  0  0  0  0  0  0  0  0  0  0
   55.2053   -7.9452   -4.7547 C   0  0  0  0  0  0  0  0  0  0  0  0
   57.3041   -6.8714   -4.8397 O   0  0  0  0  0  0  0  0  0  0  0  0
   57.8476   -7.6476   -4.5362 H   0  0  0  0  0  0  0  0  0  0  0  0
 38 39  1  0  0  0
 39 40  1  0  0  0
 39 41  1  0  0  0
 39 37  1  0  0  0
 37 33  1  0  0  0
 33 34  2  0  0  0
 33 35  1  0  0  0
 35 32  1  0  0  0
 32 31  1  0  0  0
 31  1  1  0  0  0
  1  2  2  0  0  0
  2  3  1  0  0  0
  3  4  2  0  0  0
  4  5  1  0  0  0
  5  6  2  0  0  0
  6  7  1  0  0  0
  7  8  2  0  0  0
  8 11  1  0  0  0
 11 13  1  0  0  0
 13 14  2  0  0  0
 14 15  1  0  0  0
 15 16  2  0  0  0
 16 20  1  0  0  0
 20 21  1  0  0  0
 21 22  2  0  0  0
 22 23  1  0  0  0
 23 24  2  0  0  0
 24 25  1  0  0  0
 25 27  1  0  0  0
 27 28  1  0  0  0
 27 29  1  0  0  0
 27 30  1  0  0  0
 25 26  2  0  0  0
 16 17  1  0  0  0
 17 18  1  0  0  0
 17 19  2  0  0  0
  8  9  1  0  0  0
  9 10  2  0  0  0
 10  1  1  0  0  0
  9  4  1  0  0  0
 19 13  1  0  0  0
 26 21  1  0  0  0
 41 42  1  0  0  0
 35 36  1  0  0  0
 11 12  1  0  0  0
M  END
> <minimizedAffinity>
-8.97072

> <CNNscore>
0.3477531970

> <CNNaffinity>
7.6808080673

> <CNN_VS>
2.6710255146

> <CNNaffinity_variance>
0.3825255036

$$$$
[H]OC(C([H])([H])[H])(C([H])([H])[H])C([H])([H])C(=O)N([H])C([H])([H])C([H])([H])c1c([H])c([H])c2nc([H])nc(N([H])c3c([H])c([H])c(Oc4c([H])c([H])c([H])c(C(F)(F)F)c4[H])c(Cl)c3[H])c2c1[H]


 42 45  0  0  0  0  0  0  0  0999 V2000
   50.1377   -4.1752   -5.6653 C   0  0  0  0  0  0  0  0  0  0  0  0
   49.6814   -2.9734   -6.1278 C   0  0  0  0  0  0  0  0  0  0  0  0
   50.2956   -2.3485   -7.1687 C   0  0  0  0  0  0  0  0  0  0  0  0
   51.4046   -2.9047   -7.7914 C   0  0  0  0  0  0  0  0  0  0  0  0
   51.9674   -2.2185   -8.8065 N   0  0  0  0  0  0  0  0  0  0  0  0
   53.0511   -2.7317   -9.4060 C   0  0  0  0  0  0  0  0  0  0  0  0
   53.5003   -3.8946   -8.9499 N   0  0  0  0  0  0  0  0  0  0  0  0
   53.0074   -4.6279   -7.9644 C   0  0  0  0  0  0  0  0  0  0  0  0
   51.8718   -4.1148   -7.3256 C   0  0  0  0  0  0  0  0  0  0  0  0
   51.2664   -4.7510   -6.2916 C   0  0  0  0  0  0  0  0  0  0  0  0
   53.6057   -5.8183   -7.5136 N   0  0  0  0  0  0  0  0  0  0  0  0
   53.4184   -6.7521   -7.9609 H   0  0  0  0  0  0  0  0  0  0  0  0
   54.5031   -5.8597   -6.4142 C   0  0  0  0  0  0  0  0  0  0  0  0
   55.2895   -4.8273   -6.0067 C   0  0  0  0  0  0  0  0  0  0  0  0
   56.0701   -4.8950   -4.8491 C   0  0  0  0  0  0  0  0  0  0  0  0
   56.0606   -6.0612   -4.0634 C   0  0  0  0  0  0  0  0  0  0  0  0
   55.2752   -7.1181   -4.4621 C   0  0  0  0  0  0  0  0  0  0  0  0
   55.2290   -8.6312   -3.5365 Cl  0  0  0  0  0  0  0  0  0  0  0  0
   54.5249   -6.9960   -5.6098 C   0  0  0  0  0  0  0  0  0  0  0  0
   56.8264   -6.0580   -2.9603 O   0  0  0  0  0  0  0  0  0  0  0  0
   58.0155   -6.5518   -2.5766 C   0  0  0  0  0  0  0  0  0  0  0  0
   58.6973   -7.4089   -3.4562 C   0  0  0  0  0  0  0  0  0  0  0  0
   59.9092   -7.9211   -3.0884 C   0  0  0  0  0  0  0  0  0  0  0  0
   60.4465   -7.5928   -1.8629 C   0  0  0  0  0  0  0  0  0  0  0  0
   59.8036   -6.7581   -0.9775 C   0  0  0  0  0  0  0  0  0  0  0  0
   58.5897   -6.2389   -1.3382 C   0  0  0  0  0  0  0  0  0  0  0  0
   60.4430   -6.4741    0.3348 C   0  0  0  0  0  0  0  0  0  0  0  0
   60.3025   -5.1066    0.6415 F   0  0  0  0  0  0  0  0  0  0  0  0
   59.7348   -7.1568    1.3022 F   0  0  0  0  0  0  0  0  0  0  0  0
   61.7509   -6.8659    0.3698 F   0  0  0  0  0  0  0  0  0  0  0  0
   49.5452   -4.8466   -4.5317 C   0  0  0  0  0  0  0  0  0  0  0  0
   50.1141   -4.5234   -3.1650 C   0  0  0  0  0  0  0  0  0  0  0  0
   51.0219   -6.7319   -1.8000 C   0  0  0  0  0  0  0  0  0  0  0  0
   50.3502   -7.5086   -1.0929 O   0  0  0  0  0  0  0  0  0  0  0  0
   50.5698   -5.6281   -2.4826 N   0  0  0  0  0  0  0  0  0  0  0  0
   49.2850   -5.9565   -2.1499 H   0  0  0  0  0  0  0  0  0  0  0  0
   52.4888   -7.0850   -1.8831 C   0  0  0  0  0  0  0  0  0  0  0  0
   53.8215   -5.1147   -1.2549 C   0  0  0  0  0  0  0  0  0  0  0  0
   53.3545   -6.4809   -0.8604 C   0  0  0  0  0  0  0  0  0  0  0  0
   54.4869   -7.3833   -0.3990 C   0  0  0  0  0  0  0  0  0  0  0  0
   52.5127   -6.2932    0.2934 O   0  0  0  0  0  0  0  0  0  0  0  0
   51.9363   -7.1033    0.3322 H   0  0  0  0  0  0  0  0  0  0  0  0
 38 39  1  0  0  0
 39 40  1  0  0  0
 39 41  1  0  0  0
 39 37  1  0  0  0
 37 33  1  0  0  0
 33 34  2  0  0  0
 33 35  1  0  0  0
 35 32  1  0  0  0
 32 31  1  0  0  0
 31  1  1  0  0  0
  1  2  2  0  0  0
  2  3  1  0  0  0
  3  4  2  0  0  0
  4  5  1  0  0  0
  5  6  2  0  0  0
  6  7  1  0  0  0
  7  8  2  0  0  0
  8 11  1  0  0  0
 11 13  1  0  0  0
 13 14  2  0  0  0
 14 15  1  0  0  0
 15 16  2  0  0  0
 16 20  1  0  0  0
 20 21  1  0  0  0
 21 22  2  0  0  0
 22 23  1  0  0  0
 23 24  2  0  0  0
 24 25  1  0  0  0
 25 27  1  0  0  0
 27 28  1  0  0  0
 27 29  1  0  0  0
 27 30  1  0  0  0
 25 26  2  0  0  0
 16 17  1  0  0  0
 17 18  1  0  0  0
 17 19  2  0  0  0
  8  9  1  0  0  0
  9 10  2  0  0  0
 10  1  1  0  0  0
  9  4  1  0  0  0
 19 13  1  0  0  0
 26 21  1  0  0  0
 41 42  1  0  0  0
 35 36  1  0  0  0
 11 12  1  0  0  0
M  END
> <minimizedAffinity>
-9.59487

> <CNNscore>
0.2816148996

> <CNNaffinity>
7.4366693497

> <CNN_VS>
2.0942769051

> <CNNaffinity_variance>
0.1839022934

$$$$
[H]OC(C([H])([H])[H])(C([H])([H])[H])C([H])([H])C(=O)N([H])C([H])([H])C([H])([H])c1c([H])c([H])c2nc([H])nc(N([H])c3c([H])c([H])c(Oc4c([H])c([H])c([H])c(C(F)(F)F)c4[H])c(Cl)c3[H])c2c1[H]


 42 45  0  0  0  0  0  0  0  0999 V2000
   50.1998   -4.2386   -5.7040 C   0  0  0  0  0  0  0  0  0  0  0  0
   49.7437   -3.0399   -6.1748 C   0  0  0  0  0  0  0  0  0  0  0  0
   50.3740   -2.4094   -7.2025 C   0  0  0  0  0  0  0  0  0  0  0  0
   51.4997   -2.9564   -7.8031 C   0  0  0  0  0  0  0  0  0  0  0  0
   52.0775   -2.2650   -8.8061 N   0  0  0  0  0  0  0  0  0  0  0  0
   53.1771   -2.7692   -9.3840 C   0  0  0  0  0  0  0  0  0  0  0  0
   53.6259   -3.9290   -8.9198 N   0  0  0  0  0  0  0  0  0  0  0  0
   53.1188   -4.6671   -7.9450 C   0  0  0  0  0  0  0  0  0  0  0  0
   51.9666   -4.1633   -7.3289 C   0  0  0  0  0  0  0  0  0  0  0  0
   51.3453   -4.8052   -6.3078 C   0  0  0  0  0  0  0  0  0  0  0  0
   53.7170   -5.8533   -7.4832 N   0  0  0  0  0  0  0  0  0  0  0  0
   53.5709   -6.7829   -7.9538 H   0  0  0  0  0  0  0  0  0  0  0  0
   54.5588   -5.8959   -6.3405 C   0  0  0  0  0  0  0  0  0  0  0  0
   55.3059   -4.8568   -5.8799 C   0  0  0  0  0  0  0  0  0  0  0  0
   56.0286   -4.9284   -4.6855 C   0  0  0  0  0  0  0  0  0  0  0  0
   55.9997   -6.1059   -3.9173 C   0  0  0  0  0  0  0  0  0  0  0  0
   55.2535   -7.1697   -4.3695 C   0  0  0  0  0  0  0  0  0  0  0  0
   55.1868   -8.6965   -3.4682 Cl  0  0  0  0  0  0  0  0  0  0  0  0
   54.5597   -7.0433   -5.5517 C   0  0  0  0  0  0  0  0  0  0  0  0
   56.7090   -6.1061   -2.7770 O   0  0  0  0  0  0  0  0  0  0  0  0
   57.8967   -6.5643   -2.3476 C   0  0  0  0  0  0  0  0  0  0  0  0
   58.1972   -6.4597   -0.9793 C   0  0  0  0  0  0  0  0  0  0  0  0
   59.3979   -6.9211   -0.5194 C   0  0  0  0  0  0  0  0  0  0  0  0
   60.2976   -7.4811   -1.3998 C   0  0  0  0  0  0  0  0  0  0  0  0
   60.0351   -7.5965   -2.7459 C   0  0  0  0  0  0  0  0  0  0  0  0
   58.8339   -7.1384   -3.2155 C   0  0  0  0  0  0  0  0  0  0  0  0
   61.0712   -8.1923   -3.6308 C   0  0  0  0  0  0  0  0  0  0  0  0
   61.9114   -7.1752   -4.1241 F   0  0  0  0  0  0  0  0  0  0  0  0
   61.8707   -9.0036   -2.8523 F   0  0  0  0  0  0  0  0  0  0  0  0
   60.5266   -8.9301   -4.6430 F   0  0  0  0  0  0  0  0  0  0  0  0
   49.5897   -4.9155   -4.5832 C   0  0  0  0  0  0  0  0  0  0  0  0
   50.1175   -4.5773   -3.2037 C   0  0  0  0  0  0  0  0  0  0  0  0
   50.9718   -6.7720   -1.7829 C   0  0  0  0  0  0  0  0  0  0  0  0
   50.2773   -7.5279   -1.0755 O   0  0  0  0  0  0  0  0  0  0  0  0
   50.5465   -5.6751   -2.4934 N   0  0  0  0  0  0  0  0  0  0  0  0
   49.2516   -5.9822   -2.1799 H   0  0  0  0  0  0  0  0  0  0  0  0
   52.4356   -7.1441   -1.8315 C   0  0  0  0  0  0  0  0  0  0  0  0
   53.6965   -5.1311   -1.1904 C   0  0  0  0  0  0  0  0  0  0  0  0
   53.2914   -6.5214   -0.8117 C   0  0  0  0  0  0  0  0  0  0  0  0
   54.4665   -7.3839   -0.3819 C   0  0  0  0  0  0  0  0  0  0  0  0
   52.4604   -6.3867    0.3572 O   0  0  0  0  0  0  0  0  0  0  0  0
   51.9181   -7.2202    0.3909 H   0  0  0  0  0  0  0  0  0  0  0  0
 38 39  1  0  0  0
 39 40  1  0  0  0
 39 41  1  0  0  0
 39 37  1  0  0  0
 37 33  1  0  0  0
 33 34  2  0  0  0
 33 35  1  0  0  0
 35 32  1  0  0  0
 32 31  1  0  0  0
 31  1  1  0  0  0
  1  2  2  0  0  0
  2  3  1  0  0  0
  3  4  2  0  0  0
  4  5  1  0  0  0
  5  6  2  0  0  0
  6  7  1  0  0  0
  7  8  2  0  0  0
  8 11  1  0  0  0
 11 13  1  0  0  0
 13 14  2  0  0  0
 14 15  1  0  0  0
 15 16  2  0  0  0
 16 20  1  0  0  0
 20 21  1  0  0  0
 21 22  2  0  0  0
 22 23  1  0  0  0
 23 24  2  0  0  0
 24 25  1  0  0  0
 25 27  1  0  0  0
 27 28  1  0  0  0
 27 29  1  0  0  0
 27 30  1  0  0  0
 25 26  2  0  0  0
 16 17  1  0  0  0
 17 18  1  0  0  0
 17 19  2  0  0  0
  8  9  1  0  0  0
  9 10  2  0  0  0
 10  1  1  0  0  0
  9  4  1  0  0  0
 19 13  1  0  0  0
 26 21  1  0  0  0
 41 42  1  0  0  0
 35 36  1  0  0  0
 11 12  1  0  0  0
M  END
> <minimizedAffinity>
-9.60211

> <CNNscore>
0.2439013124

> <CNNaffinity>
7.3442854881

> <CNN_VS>
1.7912808657

> <CNNaffinity_variance>
0.2828645706

$$$$
[H]OC(C([H])([H])[H])(C([H])([H])[H])C([H])([H])C(=O)N([H])C([H])([H])C([H])([H])c1c([H])c([H])c2nc([H])nc(N([H])c3c([H])c([H])c(Oc4c([H])c([H])c([H])c(C(F)(F)F)c4[H])c(Cl)c3[H])c2c1[H]


 42 45  0  0  0  0  0  0  0  0999 V2000
   56.8462   -3.9274  -12.8390 C   0  0  0  0  0  0  0  0  0  0  0  0
   58.1875   -4.1844  -12.8033 C   0  0  0  0  0  0  0  0  0  0  0  0
   58.7923   -4.5724  -11.6481 C   0  0  0  0  0  0  0  0  0  0  0  0
   58.0727   -4.7157  -10.4696 C   0  0  0  0  0  0  0  0  0  0  0  0
   58.7451   -5.0894   -9.3623 N   0  0  0  0  0  0  0  0  0  0  0  0
   58.0690   -5.2133   -8.2112 C   0  0  0  0  0  0  0  0  0  0  0  0
   56.7676   -4.9539   -8.2439 N   0  0  0  0  0  0  0  0  0  0  0  0
   56.0368   -4.5848   -9.2839 C   0  0  0  0  0  0  0  0  0  0  0  0
   56.7200   -4.4532  -10.4991 C   0  0  0  0  0  0  0  0  0  0  0  0
   56.1032   -4.0700  -11.6451 C   0  0  0  0  0  0  0  0  0  0  0  0
   54.6698   -4.2661   -9.1932 N   0  0  0  0  0  0  0  0  0  0  0  0
   54.1680   -3.7057   -9.9287 H   0  0  0  0  0  0  0  0  0  0  0  0
   53.8579   -4.6657   -8.0991 C   0  0  0  0  0  0  0  0  0  0  0  0
   54.1593   -5.6624   -7.2240 C   0  0  0  0  0  0  0  0  0  0  0  0
   53.3716   -5.9342   -6.1016 C   0  0  0  0  0  0  0  0  0  0  0  0
   52.2213   -5.1659   -5.8488 C   0  0  0  0  0  0  0  0  0  0  0  0
   51.8972   -4.1564   -6.7256 C   0  0  0  0  0  0  0  0  0  0  0  0
   50.4488   -3.1597   -6.4870 Cl  0  0  0  0  0  0  0  0  0  0  0  0
   52.7099   -3.9312   -7.8136 C   0  0  0  0  0  0  0  0  0  0  0  0
   51.5135   -5.4734   -4.7498 O   0  0  0  0  0  0  0  0  0  0  0  0
   51.7583   -5.8940   -3.4976 C   0  0  0  0  0  0  0  0  0  0  0  0
   50.7513   -6.6044   -2.8233 C   0  0  0  0  0  0  0  0  0  0  0  0
   50.9787   -7.0441   -1.5500 C   0  0  0  0  0  0  0  0  0  0  0  0
   52.1886   -6.7859   -0.9436 C   0  0  0  0  0  0  0  0  0  0  0  0
   53.1948   -6.0911   -1.5754 C   0  0  0  0  0  0  0  0  0  0  0  0
   52.9765   -5.6482   -2.8518 C   0  0  0  0  0  0  0  0  0  0  0  0
   54.4618   -5.8352   -0.8399 C   0  0  0  0  0  0  0  0  0  0  0  0
   54.2576   -4.8159    0.1103 F   0  0  0  0  0  0  0  0  0  0  0  0
   54.7653   -6.9725   -0.1203 F   0  0  0  0  0  0  0  0  0  0  0  0
   55.4980   -5.5405   -1.6794 F   0  0  0  0  0  0  0  0  0  0  0  0
   56.1755   -3.4656  -14.0321 C   0  0  0  0  0  0  0  0  0  0  0  0
   55.9042   -4.4937  -15.1117 C   0  0  0  0  0  0  0  0  0  0  0  0
   57.3065   -4.0505  -17.4360 C   0  0  0  0  0  0  0  0  0  0  0  0
   57.2145   -4.6874  -18.5038 O   0  0  0  0  0  0  0  0  0  0  0  0
   56.6066   -4.2707  -16.2739 N   0  0  0  0  0  0  0  0  0  0  0  0
   55.8468   -5.2082  -16.9167 H   0  0  0  0  0  0  0  0  0  0  0  0
   58.3121   -2.9233  -17.4740 C   0  0  0  0  0  0  0  0  0  0  0  0
   59.9991   -2.9778  -15.6841 C   0  0  0  0  0  0  0  0  0  0  0  0
   59.6924   -3.2807  -17.1174 C   0  0  0  0  0  0  0  0  0  0  0  0
   60.7384   -2.7340  -18.0748 C   0  0  0  0  0  0  0  0  0  0  0  0
   59.7626   -4.7140  -17.2425 O   0  0  0  0  0  0  0  0  0  0  0  0
   59.2278   -4.9332  -18.0525 H   0  0  0  0  0  0  0  0  0  0  0  0
 38 39  1  0  0  0
 39 40  1  0  0  0
 39 41  1  0  0  0
 39 37  1  0  0  0
 37 33  1  0  0  0
 33 34  2  0  0  0
 33 35  1  0  0  0
 35 32  1  0  0  0
 32 31  1  0  0  0
 31  1  1  0  0  0
  1  2  2  0  0  0
  2  3  1  0  0  0
  3  4  2  0  0  0
  4  5  1  0  0  0
  5  6  2  0  0  0
  6  7  1  0  0  0
  7  8  2  0  0  0
  8 11  1  0  0  0
 11 13  1  0  0  0
 13 14  2  0  0  0
 14 15  1  0  0  0
 15 16  2  0  0  0
 16 20  1  0  0  0
 20 21  1  0  0  0
 21 22  2  0  0  0
 22 23  1  0  0  0
 23 24  2  0  0  0
 24 25  1  0  0  0
 25 27  1  0  0  0
 27 28  1  0  0  0
 27 29  1  0  0  0
 27 30  1  0  0  0
 25 26  2  0  0  0
 16 17  1  0  0  0
 17 18  1  0  0  0
 17 19  2  0  0  0
  8  9  1  0  0  0
  9 10  2  0  0  0
 10  1  1  0  0  0
  9  4  1  0  0  0
 19 13  1  0  0  0
 26 21  1  0  0  0
 41 42  1  0  0  0
 35 36  1  0  0  0
 11 12  1  0  0  0
M  END
> <minimizedAffinity>
-8.91151

> <CNNscore>
0.1434539407

> <CNNaffinity>
6.8190855980

> <CNN_VS>
0.9782246947

> <CNNaffinity_variance>
0.1120788902

$$$$
[H]OC(C([H])([H])[H])(C([H])([H])[H])C([H])([H])C(=O)N([H])C([H])([H])C([H])([H])c1c([H])c([H])c2nc([H])nc(N([H])c3c([H])c([H])c(Oc4c([H])c([H])c([H])c(C(F)(F)F)c4[H])c(Cl)c3[H])c2c1[H]


 42 45  0  0  0  0  0  0  0  0999 V2000
   49.8187   -4.2779   -4.9948 C   0  0  0  0  0  0  0  0  0  0  0  0
   49.3312   -3.0299   -5.2619 C   0  0  0  0  0  0  0  0  0  0  0  0
   49.7953   -2.3121   -6.3204 C   0  0  0  0  0  0  0  0  0  0  0  0
   50.7789   -2.8177   -7.1595 C   0  0  0  0  0  0  0  0  0  0  0  0
   51.1980   -2.0408   -8.1787 N   0  0  0  0  0  0  0  0  0  0  0  0
   52.1613   -2.5056   -8.9868 C   0  0  0  0  0  0  0  0  0  0  0  0
   52.6420   -3.7141   -8.7213 N   0  0  0  0  0  0  0  0  0  0  0  0
   52.2859   -4.5359   -7.7466 C   0  0  0  0  0  0  0  0  0  0  0  0
   51.2774   -4.0744   -6.8918 C   0  0  0  0  0  0  0  0  0  0  0  0
   50.8205   -4.8030   -5.8424 C   0  0  0  0  0  0  0  0  0  0  0  0
   52.9123   -5.7732   -7.5122 N   0  0  0  0  0  0  0  0  0  0  0  0
   52.5352   -6.6803   -7.8891 H   0  0  0  0  0  0  0  0  0  0  0  0
   54.0978   -5.9014   -6.7415 C   0  0  0  0  0  0  0  0  0  0  0  0
   54.1556   -6.3744   -5.4676 C   0  0  0  0  0  0  0  0  0  0  0  0
   55.3674   -6.5803   -4.8017 C   0  0  0  0  0  0  0  0  0  0  0  0
   56.5818   -6.2934   -5.4498 C   0  0  0  0  0  0  0  0  0  0  0  0
   56.5436   -5.8093   -6.7371 C   0  0  0  0  0  0  0  0  0  0  0  0
   58.0325   -5.4016   -7.6118 Cl  0  0  0  0  0  0  0  0  0  0  0  0
   55.3222   -5.6276   -7.3455 C   0  0  0  0  0  0  0  0  0  0  0  0
   57.7097   -6.5210   -4.7575 O   0  0  0  0  0  0  0  0  0  0  0  0
   58.0545   -7.0236   -3.5601 C   0  0  0  0  0  0  0  0  0  0  0  0
   57.8830   -6.2166   -2.4232 C   0  0  0  0  0  0  0  0  0  0  0  0
   58.2244   -6.7074   -1.1949 C   0  0  0  0  0  0  0  0  0  0  0  0
   58.7319   -7.9836   -1.0858 C   0  0  0  0  0  0  0  0  0  0  0  0
   58.9143   -8.7989   -2.1795 C   0  0  0  0  0  0  0  0  0  0  0  0
   58.5735   -8.3161   -3.4140 C   0  0  0  0  0  0  0  0  0  0  0  0
   59.4901  -10.1548   -1.9761 C   0  0  0  0  0  0  0  0  0  0  0  0
   60.6744  -10.0555   -1.2202 F   0  0  0  0  0  0  0  0  0  0  0  0
   58.6031  -10.8748   -1.2027 F   0  0  0  0  0  0  0  0  0  0  0  0
   59.6993  -10.8115   -3.1554 F   0  0  0  0  0  0  0  0  0  0  0  0
   49.3889   -5.0516   -3.8532 C   0  0  0  0  0  0  0  0  0  0  0  0
   50.2892   -5.0395   -2.6344 C   0  0  0  0  0  0  0  0  0  0  0  0
   51.6389   -7.4030   -2.2381 C   0  0  0  0  0  0  0  0  0  0  0  0
   52.8392   -7.6347   -2.4829 O   0  0  0  0  0  0  0  0  0  0  0  0
   50.9631   -6.2227   -2.4355 N   0  0  0  0  0  0  0  0  0  0  0  0
   52.1395   -5.6131   -2.7731 H   0  0  0  0  0  0  0  0  0  0  0  0
   50.8874   -8.5812   -1.6634 C   0  0  0  0  0  0  0  0  0  0  0  0
   51.8908   -7.9578    0.4947 C   0  0  0  0  0  0  0  0  0  0  0  0
   50.7276   -8.5912   -0.2024 C   0  0  0  0  0  0  0  0  0  0  0  0
   50.3640   -9.9515    0.3694 C   0  0  0  0  0  0  0  0  0  0  0  0
   49.5955   -7.7419    0.0661 O   0  0  0  0  0  0  0  0  0  0  0  0
   48.9408   -7.9413   -0.6562 H   0  0  0  0  0  0  0  0  0  0  0  0
 38 39  1  0  0  0
 39 40  1  0  0  0
 39 41  1  0  0  0
 39 37  1  0  0  0
 37 33  1  0  0  0
 33 34  2  0  0  0
 33 35  1  0  0  0
 35 32  1  0  0  0
 32 31  1  0  0  0
 31  1  1  0  0  0
  1  2  2  0  0  0
  2  3  1  0  0  0
  3  4  2  0  0  0
  4  5  1  0  0  0
  5  6  2  0  0  0
  6  7  1  0  0  0
  7  8  2  0  0  0
  8 11  1  0  0  0
 11 13  1  0  0  0
 13 14  2  0  0  0
 14 15  1  0  0  0
 15 16  2  0  0  0
 16 20  1  0  0  0
 20 21  1  0  0  0
 21 22  2  0  0  0
 22 23  1  0  0  0
 23 24  2  0  0  0
 24 25  1  0  0  0
 25 27  1  0  0  0
 27 28  1  0  0  0
 27 29  1  0  0  0
 27 30  1  0  0  0
 25 26  2  0  0  0
 16 17  1  0  0  0
 17 18  1  0  0  0
 17 19  2  0  0  0
  8  9  1  0  0  0
  9 10  2  0  0  0
 10  1  1  0  0  0
  9  4  1  0  0  0
 19 13  1  0  0  0
 26 21  1  0  0  0
 41 42  1  0  0  0
 35 36  1  0  0  0
 11 12  1  0  0  0
M  END
> <minimizedAffinity>
-8.99997

> <CNNscore>
0.1420686096

> <CNNaffinity>
7.2308225632

> <CNN_VS>
1.0272729397

> <CNNaffinity_variance>
0.2029180825

$$$$
[H]OC(C([H])([H])[H])(C([H])([H])[H])C([H])([H])C(=O)N([H])C([H])([H])C([H])([H])c1c([H])c([H])c2nc([H])nc(N([H])c3c([H])c([H])c(Oc4c([H])c([H])c([H])c(C(F)(F)F)c4[H])c(Cl)c3[H])c2c1[H]


 42 45  0  0  0  0  0  0  0  0999 V2000
   51.8196   -3.7490   -7.4584 C   0  0  0  0  0  0  0  0  0  0  0  0
   52.0639   -2.7867   -8.3968 C   0  0  0  0  0  0  0  0  0  0  0  0
   53.2817   -2.6903   -8.9956 C   0  0  0  0  0  0  0  0  0  0  0  0
   54.3154   -3.5588   -8.6726 C   0  0  0  0  0  0  0  0  0  0  0  0
   55.4981   -3.3909   -9.2981 N   0  0  0  0  0  0  0  0  0  0  0  0
   56.5130   -4.2084   -8.9836 C   0  0  0  0  0  0  0  0  0  0  0  0
   56.2784   -5.1370   -8.0646 N   0  0  0  0  0  0  0  0  0  0  0  0
   55.1522   -5.3669   -7.4082 C   0  0  0  0  0  0  0  0  0  0  0  0
   54.0757   -4.5286   -7.7231 C   0  0  0  0  0  0  0  0  0  0  0  0
   52.8647   -4.6390   -7.1214 C   0  0  0  0  0  0  0  0  0  0  0  0
   55.0314   -6.3382   -6.3981 N   0  0  0  0  0  0  0  0  0  0  0  0
   54.5278   -7.2502   -6.5455 H   0  0  0  0  0  0  0  0  0  0  0  0
   55.5701   -6.1649   -5.0960 C   0  0  0  0  0  0  0  0  0  0  0  0
   55.5967   -4.9906   -4.4102 C   0  0  0  0  0  0  0  0  0  0  0  0
   56.0406   -4.9084   -3.0871 C   0  0  0  0  0  0  0  0  0  0  0  0
   56.4822   -6.0659   -2.4219 C   0  0  0  0  0  0  0  0  0  0  0  0
   56.4675   -7.2625   -3.1009 C   0  0  0  0  0  0  0  0  0  0  0  0
   57.0316   -8.7613   -2.3370 Cl  0  0  0  0  0  0  0  0  0  0  0  0
   56.0181   -7.2858   -4.4019 C   0  0  0  0  0  0  0  0  0  0  0  0
   56.8879   -5.9195   -1.1502 O   0  0  0  0  0  0  0  0  0  0  0  0
   58.0476   -5.7595   -0.4910 C   0  0  0  0  0  0  0  0  0  0  0  0
   58.1975   -4.6304    0.3312 C   0  0  0  0  0  0  0  0  0  0  0  0
   59.3671   -4.4480    1.0132 C   0  0  0  0  0  0  0  0  0  0  0  0
   60.3830   -5.3701    0.8865 C   0  0  0  0  0  0  0  0  0  0  0  0
   60.2691   -6.4853    0.0880 C   0  0  0  0  0  0  0  0  0  0  0  0
   59.1002   -6.6770   -0.5977 C   0  0  0  0  0  0  0  0  0  0  0  0
   61.4228   -7.4184   -0.0107 C   0  0  0  0  0  0  0  0  0  0  0  0
   62.6202   -6.7135    0.2200 F   0  0  0  0  0  0  0  0  0  0  0  0
   61.3128   -8.3307    1.0184 F   0  0  0  0  0  0  0  0  0  0  0  0
   61.4517   -8.0827   -1.2037 F   0  0  0  0  0  0  0  0  0  0  0  0
   50.5574   -3.8536   -6.7637 C   0  0  0  0  0  0  0  0  0  0  0  0
   50.2341   -5.1864   -6.1192 C   0  0  0  0  0  0  0  0  0  0  0  0
   50.1336   -5.0870   -3.3724 C   0  0  0  0  0  0  0  0  0  0  0  0
   49.1286   -5.2363   -2.6499 O   0  0  0  0  0  0  0  0  0  0  0  0
   50.1855   -5.1364   -4.7449 N   0  0  0  0  0  0  0  0  0  0  0  0
   48.8768   -5.5314   -4.7737 H   0  0  0  0  0  0  0  0  0  0  0  0
   51.4102   -4.8242   -2.6078 C   0  0  0  0  0  0  0  0  0  0  0  0
   53.0295   -5.6128   -0.9318 C   0  0  0  0  0  0  0  0  0  0  0  0
   52.0419   -5.9979   -1.9885 C   0  0  0  0  0  0  0  0  0  0  0  0
   52.6033   -6.9959   -2.9878 C   0  0  0  0  0  0  0  0  0  0  0  0
   50.9798   -6.6895   -1.3039 O   0  0  0  0  0  0  0  0  0  0  0  0
   50.1920   -6.6240   -1.9082 H   0  0  0  0  0  0  0  0  0  0  0  0
 38 39  1  0  0  0
 39 40  1  0  0  0
 39 41  1  0  0  0
 39 37  1  0  0  0
 37 33  1  0  0  0
 33 34  2  0  0  0
 33 35  1  0  0  0
 35 32  1  0  0  0
 32 31  1  0  0  0
 31  1  1  0  0  0
  1  2  2  0  0  0
  2  3  1  0  0  0
  3  4  2  0  0  0
  4  5  1  0  0  0
  5  6  2  0  0  0
  6  7  1  0  0  0
  7  8  2  0  0  0
  8 11  1  0  0  0
 11 13  1  0  0  0
 13 14  2  0  0  0
 14 15  1  0  0  0
 15 16  2  0  0  0
 16 20  1  0  0  0
 20 21  1  0  0  0
 21 22  2  0  0  0
 22 23  1  0  0  0
 23 24  2  0  0  0
 24 25  1  0  0  0
 25 27  1  0  0  0
 27 28  1  0  0  0
 27 29  1  0  0  0
 27 30  1  0  0  0
 25 26  2  0  0  0
 16 17  1  0  0  0
 17 18  1  0  0  0
 17 19  2  0  0  0
  8  9  1  0  0  0
  9 10  2  0  0  0
 10  1  1  0  0  0
  9  4  1  0  0  0
 19 13  1  0  0  0
 26 21  1  0  0  0
 41 42  1  0  0  0
 35 36  1  0  0  0
 11 12  1  0  0  0
M  END
> <minimizedAffinity>
-8.95474

> <CNNscore>
0.1398483664

> <CNNaffinity>
7.0134353638

> <CNN_VS>
0.9808174968

> <CNNaffinity_variance>
0.4070923328

$$$$
[H]OC(C([H])([H])[H])(C([H])([H])[H])C([H])([H])C(=O)N([H])C([H])([H])C([H])([H])c1c([H])c([H])c2nc([H])nc(N([H])c3c([H])c([H])c(Oc4c([H])c([H])c([H])c(C(F)(F)F)c4[H])c(Cl)c3[H])c2c1[H]


 42 45  0  0  0  0  0  0  0  0999 V2000
   52.0400   -3.7234   -7.5574 C   0  0  0  0  0  0  0  0  0  0  0  0
   52.4489   -2.9879   -8.6337 C   0  0  0  0  0  0  0  0  0  0  0  0
   53.7344   -3.0528   -9.0743 C   0  0  0  0  0  0  0  0  0  0  0  0
   54.6726   -3.8608   -8.4465 C   0  0  0  0  0  0  0  0  0  0  0  0
   55.9303   -3.8605   -8.9324 N   0  0  0  0  0  0  0  0  0  0  0  0
   56.8536   -4.6199   -8.3258 C   0  0  0  0  0  0  0  0  0  0  0  0
   56.4586   -5.3268   -7.2740 N   0  0  0  0  0  0  0  0  0  0  0  0
   55.2496   -5.3826   -6.7380 C   0  0  0  0  0  0  0  0  0  0  0  0
   54.2664   -4.6013   -7.3574 C   0  0  0  0  0  0  0  0  0  0  0  0
   52.9866   -4.5497   -6.9101 C   0  0  0  0  0  0  0  0  0  0  0  0
   54.9538   -6.1151   -5.5742 N   0  0  0  0  0  0  0  0  0  0  0  0
   53.9995   -6.5144   -5.3825 H   0  0  0  0  0  0  0  0  0  0  0  0
   55.9143   -6.3679   -4.5596 C   0  0  0  0  0  0  0  0  0  0  0  0
   57.0038   -7.1707   -4.6962 C   0  0  0  0  0  0  0  0  0  0  0  0
   57.9725   -7.2915   -3.6955 C   0  0  0  0  0  0  0  0  0  0  0  0
   57.8364   -6.5699   -2.4963 C   0  0  0  0  0  0  0  0  0  0  0  0
   56.7383   -5.7564   -2.3376 C   0  0  0  0  0  0  0  0  0  0  0  0
   56.4848   -4.8332   -0.8437 Cl  0  0  0  0  0  0  0  0  0  0  0  0
   55.8164   -5.6737   -3.3566 C   0  0  0  0  0  0  0  0  0  0  0  0
   58.8056   -6.7245   -1.5798 O   0  0  0  0  0  0  0  0  0  0  0  0
   59.6289   -7.7003   -1.1613 C   0  0  0  0  0  0  0  0  0  0  0  0
   61.0113   -7.4509   -1.1570 C   0  0  0  0  0  0  0  0  0  0  0  0
   61.8675   -8.4275   -0.7333 C   0  0  0  0  0  0  0  0  0  0  0  0
   61.3670   -9.6419   -0.3174 C   0  0  0  0  0  0  0  0  0  0  0  0
   60.0189   -9.9190   -0.3114 C   0  0  0  0  0  0  0  0  0  0  0  0
   59.1535   -8.9459   -0.7326 C   0  0  0  0  0  0  0  0  0  0  0  0
   59.5644  -11.2641    0.1309 C   0  0  0  0  0  0  0  0  0  0  0  0
   60.6243  -11.9315    0.7751 F   0  0  0  0  0  0  0  0  0  0  0  0
   58.5891  -11.0824    1.0896 F   0  0  0  0  0  0  0  0  0  0  0  0
   59.0555  -12.0037   -0.8984 F   0  0  0  0  0  0  0  0  0  0  0  0
   50.6983   -3.6451   -7.0279 C   0  0  0  0  0  0  0  0  0  0  0  0
   50.1114   -4.9159   -6.4476 C   0  0  0  0  0  0  0  0  0  0  0  0
   49.7486   -4.8188   -3.7229 C   0  0  0  0  0  0  0  0  0  0  0  0
   48.6713   -4.9152   -3.1029 O   0  0  0  0  0  0  0  0  0  0  0  0
   49.9316   -4.8671   -5.0841 N   0  0  0  0  0  0  0  0  0  0  0  0
   48.6127   -5.1904   -5.2434 H   0  0  0  0  0  0  0  0  0  0  0  0
   50.9568   -4.6280   -2.8355 C   0  0  0  0  0  0  0  0  0  0  0  0
   52.5784   -5.5645   -1.2399 C   0  0  0  0  0  0  0  0  0  0  0  0
   51.5587   -5.8556   -2.2962 C   0  0  0  0  0  0  0  0  0  0  0  0
   52.0667   -6.8133   -3.3613 C   0  0  0  0  0  0  0  0  0  0  0  0
   50.4861   -6.5489   -1.6301 O   0  0  0  0  0  0  0  0  0  0  0  0
   49.6900   -6.4227   -2.2135 H   0  0  0  0  0  0  0  0  0  0  0  0
 38 39  1  0  0  0
 39 40  1  0  0  0
 39 41  1  0  0  0
 39 37  1  0  0  0
 37 33  1  0  0  0
 33 34  2  0  0  0
 33 35  1  0  0  0
 35 32  1  0  0  0
 32 31  1  0  0  0
 31  1  1  0  0  0
  1  2  2  0  0  0
  2  3  1  0  0  0
  3  4  2  0  0  0
  4  5  1  0  0  0
  5  6  2  0  0  0
  6  7  1  0  0  0
  7  8  2  0  0  0
  8 11  1  0  0  0
 11 13  1  0  0  0
 13 14  2  0  0  0
 14 15  1  0  0  0
 15 16  2  0  0  0
 16 20  1  0  0  0
 20 21  1  0  0  0
 21 22  2  0  0  0
 22 23  1  0  0  0
 23 24  2  0  0  0
 24 25  1  0  0  0
 25 27  1  0  0  0
 27 28  1  0  0  0
 27 29  1  0  0  0
 27 30  1  0  0  0
 25 26  2  0  0  0
 16 17  1  0  0  0
 17 18  1  0  0  0
 17 19  2  0  0  0
  8  9  1  0  0  0
  9 10  2  0  0  0
 10  1  1  0  0  0
  9  4  1  0  0  0
 19 13  1  0  0  0
 26 21  1  0  0  0
 41 42  1  0  0  0
 35 36  1  0  0  0
 11 12  1  0  0  0
M  END
> <minimizedAffinity>
-8.25662

> <CNNscore>
0.1361521482

> <CNNaffinity>
7.1327104568

> <CNN_VS>
0.9711338282

> <CNNaffinity_variance>
0.1022773236

$$$$
[H]OC(C([H])([H])[H])(C([H])([H])[H])C([H])([H])C(=O)N([H])C([H])([H])C([H])([H])c1c([H])c([H])c2nc([H])nc(N([H])c3c([H])c([H])c(Oc4c([H])c([H])c([H])c(C(F)(F)F)c4[H])c(Cl)c3[H])c2c1[H]


 42 45  0  0  0  0  0  0  0  0999 V2000
   53.8725   -3.7672   -8.6910 C   0  0  0  0  0  0  0  0  0  0  0  0
   53.1950   -2.6827   -9.1717 C   0  0  0  0  0  0  0  0  0  0  0  0
   52.0011   -2.3124   -8.6346 C   0  0  0  0  0  0  0  0  0  0  0  0
   51.4296   -3.0225   -7.5875 C   0  0  0  0  0  0  0  0  0  0  0  0
   50.2373   -2.6029   -7.1183 N   0  0  0  0  0  0  0  0  0  0  0  0
   49.6618   -3.2889   -6.1206 C   0  0  0  0  0  0  0  0  0  0  0  0
   50.3155   -4.3486   -5.6603 N   0  0  0  0  0  0  0  0  0  0  0  0
   51.4835   -4.8232   -6.0634 C   0  0  0  0  0  0  0  0  0  0  0  0
   52.1068   -4.1203   -7.1018 C   0  0  0  0  0  0  0  0  0  0  0  0
   53.3002   -4.4980   -7.6250 C   0  0  0  0  0  0  0  0  0  0  0  0
   52.0571   -6.0008   -5.5510 N   0  0  0  0  0  0  0  0  0  0  0  0
   51.7721   -6.9594   -5.8780 H   0  0  0  0  0  0  0  0  0  0  0  0
   53.0597   -5.9937   -4.5457 C   0  0  0  0  0  0  0  0  0  0  0  0
   52.8325   -5.8248   -3.2153 C   0  0  0  0  0  0  0  0  0  0  0  0
   53.8501   -5.9386   -2.2636 C   0  0  0  0  0  0  0  0  0  0  0  0
   55.1627   -6.2348   -2.6718 C   0  0  0  0  0  0  0  0  0  0  0  0
   55.4132   -6.4042   -4.0140 C   0  0  0  0  0  0  0  0  0  0  0  0
   57.0476   -6.7560   -4.6082 Cl  0  0  0  0  0  0  0  0  0  0  0  0
   54.3728   -6.2828   -4.9073 C   0  0  0  0  0  0  0  0  0  0  0  0
   56.0913   -6.3382   -1.7072 O   0  0  0  0  0  0  0  0  0  0  0  0
   56.4366   -7.2185   -0.7529 C   0  0  0  0  0  0  0  0  0  0  0  0
   55.7953   -7.1366    0.4943 C   0  0  0  0  0  0  0  0  0  0  0  0
   56.1284   -8.0228    1.4791 C   0  0  0  0  0  0  0  0  0  0  0  0
   57.0869   -8.9830    1.2389 C   0  0  0  0  0  0  0  0  0  0  0  0
   57.7353   -9.0889    0.0295 C   0  0  0  0  0  0  0  0  0  0  0  0
   57.4067   -8.2063   -0.9636 C   0  0  0  0  0  0  0  0  0  0  0  0
   58.7742  -10.1396   -0.1383 C   0  0  0  0  0  0  0  0  0  0  0  0
   60.0448   -9.5373   -0.2199 F   0  0  0  0  0  0  0  0  0  0  0  0
   58.7870  -10.9032    1.0106 F   0  0  0  0  0  0  0  0  0  0  0  0
   58.5287  -10.9443   -1.2143 F   0  0  0  0  0  0  0  0  0  0  0  0
   55.1171   -4.2226   -9.2656 C   0  0  0  0  0  0  0  0  0  0  0  0
   56.1739   -4.7308   -8.3058 C   0  0  0  0  0  0  0  0  0  0  0  0
   58.4865   -5.5475   -9.5508 C   0  0  0  0  0  0  0  0  0  0  0  0
   58.6652   -5.7132  -10.7734 O   0  0  0  0  0  0  0  0  0  0  0  0
   57.3317   -5.1395   -8.9272 N   0  0  0  0  0  0  0  0  0  0  0  0
   56.7601   -4.9126  -10.1484 H   0  0  0  0  0  0  0  0  0  0  0  0
   59.7027   -5.8414   -8.7036 C   0  0  0  0  0  0  0  0  0  0  0  0
   60.5448   -7.9664   -9.6136 C   0  0  0  0  0  0  0  0  0  0  0  0
   60.8168   -6.5118   -9.3887 C   0  0  0  0  0  0  0  0  0  0  0  0
   62.1747   -6.2544   -8.7567 C   0  0  0  0  0  0  0  0  0  0  0  0
   60.8782   -5.9141  -10.6979 O   0  0  0  0  0  0  0  0  0  0  0  0
   60.6981   -4.9463  -10.5531 H   0  0  0  0  0  0  0  0  0  0  0  0
 38 39  1  0  0  0
 39 40  1  0  0  0
 39 41  1  0  0  0
 39 37  1  0  0  0
 37 33  1  0  0  0
 33 34  2  0  0  0
 33 35  1  0  0  0
 35 32  1  0  0  0
 32 31  1  0  0  0
 31  1  1  0  0  0
  1  2  2  0  0  0
  2  3  1  0  0  0
  3  4  2  0  0  0
  4  5  1  0  0  0
  5  6  2  0  0  0
  6  7  1  0  0  0
  7  8  2  0  0  0
  8 11  1  0  0  0
 11 13  1  0  0  0
 13 14  2  0  0  0
 14 15  1  0  0  0
 15 16  2  0  0  0
 16 20  1  0  0  0
 20 21  1  0  0  0
 21 22  2  0  0  0
 22 23  1  0  0  0
 23 24  2  0  0  0
 24 25  1  0  0  0
 25 27  1  0  0  0
 27 28  1  0  0  0
 27 29  1  0  0  0
 27 30  1  0  0  0
 25 26  2  0  0  0
 16 17  1  0  0  0
 17 18  1  0  0  0
 17 19  2  0  0  0
  8  9  1  0  0  0
  9 10  2  0  0  0
 10  1  1  0  0  0
  9  4  1  0  0  0
 19 13  1  0  0  0
 26 21  1  0  0  0
 41 42  1  0  0  0
 35 36  1  0  0  0
 11 12  1  0  0  0
M  END
> <minimizedAffinity>
-9.15232

> <CNNscore>
0.1178883091

> <CNNaffinity>
7.1030526161

> <CNN_VS>
0.8373668790

> <CNNaffinity_variance>
0.0769810230

$$$$
[H]OC(C([H])([H])[H])(C([H])([H])[H])C([H])([H])C(=O)N([H])C([H])([H])C([H])([H])c1c([H])c([H])c2nc([H])nc(N([H])c3c([H])c([H])c(Oc4c([H])c([H])c([H])c(C(F)(F)F)c4[H])c(Cl)c3[H])c2c1[H]


 42 45  0  0  0  0  0  0  0  0999 V2000
   50.5122   -4.9052   -5.2949 C   0  0  0  0  0  0  0  0  0  0  0  0
   49.8973   -3.7172   -5.5726 C   0  0  0  0  0  0  0  0  0  0  0  0
   50.3477   -2.9174   -6.5768 C   0  0  0  0  0  0  0  0  0  0  0  0
   51.4450   -3.2759   -7.3479 C   0  0  0  0  0  0  0  0  0  0  0  0
   51.8406   -2.4240   -8.3153 N   0  0  0  0  0  0  0  0  0  0  0  0
   52.9106   -2.7454   -9.0562 C   0  0  0  0  0  0  0  0  0  0  0  0
   53.5139   -3.8950   -8.7797 N   0  0  0  0  0  0  0  0  0  0  0  0
   53.1895   -4.7825   -7.8528 C   0  0  0  0  0  0  0  0  0  0  0  0
   52.0718   -4.4712   -7.0689 C   0  0  0  0  0  0  0  0  0  0  0  0
   51.6306   -5.2806   -6.0734 C   0  0  0  0  0  0  0  0  0  0  0  0
   53.9429   -5.9422   -7.5967 N   0  0  0  0  0  0  0  0  0  0  0  0
   54.1157   -6.6793   -8.3274 H   0  0  0  0  0  0  0  0  0  0  0  0
   54.5237   -6.2182   -6.3308 C   0  0  0  0  0  0  0  0  0  0  0  0
   54.6989   -7.4600   -5.8043 C   0  0  0  0  0  0  0  0  0  0  0  0
   55.3782   -7.6719   -4.6010 C   0  0  0  0  0  0  0  0  0  0  0  0
   55.9055   -6.5787   -3.8909 C   0  0  0  0  0  0  0  0  0  0  0  0
   55.7339   -5.3142   -4.4051 C   0  0  0  0  0  0  0  0  0  0  0  0
   56.3495   -3.8836   -3.5550 Cl  0  0  0  0  0  0  0  0  0  0  0  0
   55.0585   -5.1639   -5.5951 C   0  0  0  0  0  0  0  0  0  0  0  0
   56.5534   -6.8517   -2.7468 O   0  0  0  0  0  0  0  0  0  0  0  0
   57.8245   -6.9996   -2.3375 C   0  0  0  0  0  0  0  0  0  0  0  0
   58.7883   -7.3911   -3.2815 C   0  0  0  0  0  0  0  0  0  0  0  0
   60.0876   -7.5453   -2.8888 C   0  0  0  0  0  0  0  0  0  0  0  0
   60.4364   -7.3168   -1.5757 C   0  0  0  0  0  0  0  0  0  0  0  0
   59.5166   -6.9345   -0.6259 C   0  0  0  0  0  0  0  0  0  0  0  0
   58.2128   -6.7759   -1.0107 C   0  0  0  0  0  0  0  0  0  0  0  0
   59.9732   -6.7312    0.7747 C   0  0  0  0  0  0  0  0  0  0  0  0
   60.2267   -7.9804    1.3738 F   0  0  0  0  0  0  0  0  0  0  0  0
   61.1868   -6.0767    0.7288 F   0  0  0  0  0  0  0  0  0  0  0  0
   59.0877   -5.9925    1.5066 F   0  0  0  0  0  0  0  0  0  0  0  0
   50.0965   -5.7588   -4.2062 C   0  0  0  0  0  0  0  0  0  0  0  0
   50.4062   -5.2835   -2.8011 C   0  0  0  0  0  0  0  0  0  0  0  0
   52.0205   -7.0047   -1.3881 C   0  0  0  0  0  0  0  0  0  0  0  0
   53.2387   -7.2063   -1.5599 O   0  0  0  0  0  0  0  0  0  0  0  0
   51.2126   -6.1451   -2.0932 N   0  0  0  0  0  0  0  0  0  0  0  0
   52.3098   -5.6652   -2.7528 H   0  0  0  0  0  0  0  0  0  0  0  0
   51.4113   -7.8195   -0.2707 C   0  0  0  0  0  0  0  0  0  0  0  0
   51.2789   -9.7817   -1.7490 C   0  0  0  0  0  0  0  0  0  0  0  0
   51.5785   -9.2762   -0.3724 C   0  0  0  0  0  0  0  0  0  0  0  0
   50.8588  -10.0573    0.7146 C   0  0  0  0  0  0  0  0  0  0  0  0
   52.9825   -9.5176   -0.1593 O   0  0  0  0  0  0  0  0  0  0  0  0
   53.2510   -8.8857    0.5609 H   0  0  0  0  0  0  0  0  0  0  0  0
 38 39  1  0  0  0
 39 40  1  0  0  0
 39 41  1  0  0  0
 39 37  1  0  0  0
 37 33  1  0  0  0
 33 34  2  0  0  0
 33 35  1  0  0  0
 35 32  1  0  0  0
 32 31  1  0  0  0
 31  1  1  0  0  0
  1  2  2  0  0  0
  2  3  1  0  0  0
  3  4  2  0  0  0
  4  5  1  0  0  0
  5  6  2  0  0  0
  6  7  1  0  0  0
  7  8  2  0  0  0
  8 11  1  0  0  0
 11 13  1  0  0  0
 13 14  2  0  0  0
 14 15  1  0  0  0
 15 16  2  0  0  0
 16 20  1  0  0  0
 20 21  1  0  0  0
 21 22  2  0  0  0
 22 23  1  0  0  0
 23 24  2  0  0  0
 24 25  1  0  0  0
 25 27  1  0  0  0
 27 28  1  0  0  0
 27 29  1  0  0  0
 27 30  1  0  0  0
 25 26  2  0  0  0
 16 17  1  0  0  0
 17 18  1  0  0  0
 17 19  2  0  0  0
  8  9  1  0  0  0
  9 10  2  0  0  0
 10  1  1  0  0  0
  9  4  1  0  0  0
 19 13  1  0  0  0
 26 21  1  0  0  0
 41 42  1  0  0  0
 35 36  1  0  0  0
 11 12  1  0  0  0
M  END
> <minimizedAffinity>
-8.81273

> <CNNscore>
0.1062442288

> <CNNaffinity>
7.0711240768

> <CNN_VS>
0.7512661219

> <CNNaffinity_variance>
0.1596690416

$$$$
[H]OC(=O)c1c([H])c([H])c(C([H])([H])N([H])C(=O)c2c([H])c([H])c(C(C([H])([H])[H])(C([H])([H])[H])C([H])([H])[H])c([H])c2[H])c([H])c1F


 26 27  0  0  0  0  0  0  0  0999 V2000
   57.9217   -5.5407   -9.6975 C   0  0  0  0  0  0  0  0  0  0  0  0
   58.7172   -6.4538   -9.3277 O   0  0  0  0  0  0  0  0  0  0  0  0
   58.3243   -4.6531  -10.7027 N   0  0  0  0  0  0  0  0  0  0  0  0
   57.6269   -3.9036  -11.0006 H   0  0  0  0  0  0  0  0  0  0  0  0
   54.0462   -5.2178   -7.9377 C   0  0  0  0  0  0  0  0  0  0  0  0
   54.4089   -4.4541   -9.0309 C   0  0  0  0  0  0  0  0  0  0  0  0
   55.6605   -4.5439   -9.6021 C   0  0  0  0  0  0  0  0  0  0  0  0
   56.6046   -5.4093   -9.0929 C   0  0  0  0  0  0  0  0  0  0  0  0
   56.2858   -6.1816   -8.0109 C   0  0  0  0  0  0  0  0  0  0  0  0
   55.0093   -6.0680   -7.4563 C   0  0  0  0  0  0  0  0  0  0  0  0
   52.6027   -3.7908   -6.6028 C   0  0  0  0  0  0  0  0  0  0  0  0
   52.6885   -5.1269   -7.3130 C   0  0  0  0  0  0  0  0  0  0  0  0
   52.5443   -6.2026   -6.2622 C   0  0  0  0  0  0  0  0  0  0  0  0
   51.5873   -5.2831   -8.3419 C   0  0  0  0  0  0  0  0  0  0  0  0
   59.5727   -4.6415  -11.4054 C   0  0  0  0  0  0  0  0  0  0  0  0
   59.4997   -3.9186  -12.6978 C   0  0  0  0  0  0  0  0  0  0  0  0
   60.3530   -2.8102  -12.8756 C   0  0  0  0  0  0  0  0  0  0  0  0
   60.3643   -2.1112  -14.0544 C   0  0  0  0  0  0  0  0  0  0  0  0
   59.5489   -2.4428  -15.1347 C   0  0  0  0  0  0  0  0  0  0  0  0
   58.7091   -3.5253  -14.9689 C   0  0  0  0  0  0  0  0  0  0  0  0
   57.8978   -3.8948  -15.9923 F   0  0  0  0  0  0  0  0  0  0  0  0
   58.7027   -4.2348  -13.7621 C   0  0  0  0  0  0  0  0  0  0  0  0
   59.6203   -1.6722  -16.3606 C   0  0  0  0  0  0  0  0  0  0  0  0
   59.0659   -0.5381  -16.3744 O   0  0  0  0  0  0  0  0  0  0  0  0
   60.2667   -2.1512  -17.4667 O   0  0  0  0  0  0  0  0  0  0  0  0
   61.2669   -2.0364  -17.6635 H   0  0  0  0  0  0  0  0  0  0  0  0
 11 12  1  0  0  0
 12 13  1  0  0  0
 12 14  1  0  0  0
 12  5  1  0  0  0
  5  6  2  0  0  0
  6  7  1  0  0  0
  7  8  2  0  0  0
  8  1  1  0  0  0
  1  2  2  0  0  0
  1  3  1  0  0  0
  3 15  1  0  0  0
 15 16  1  0  0  0
 16 17  2  0  0  0
 17 18  1  0  0  0
 18 19  2  0  0  0
 19 23  1  0  0  0
 23 24  2  0  0  0
 23 25  1  0  0  0
 19 20  1  0  0  0
 20 21  1  0  0  0
 20 22  2  0  0  0
  8  9  1  0  0  0
  9 10  2  0  0  0
 10  5  1  0  0  0
 22 16  1  0  0  0
  3  4  1  0  0  0
 25 26  1  0  0  0
M  END
> <minimizedAffinity>
2.68319

> <CNNscore>
0.5042397976

> <CNNaffinity>
4.9923658371

> <CNN_VS>
2.5173494816

> <CNNaffinity_variance>
1.4922416210

$$$$
[H]OC(=O)c1c([H])c([H])c(C([H])([H])N([H])C(=O)c2c([H])c([H])c(C(C([H])([H])[H])(C([H])([H])[H])C([H])([H])[H])c([H])c2[H])c([H])c1F


 26 27  0  0  0  0  0  0  0  0999 V2000
   53.3682   -3.5044   -9.2013 C   0  0  0  0  0  0  0  0  0  0  0  0
   52.9318   -2.8301  -10.1802 O   0  0  0  0  0  0  0  0  0  0  0  0
   54.6660   -4.0267   -9.2592 N   0  0  0  0  0  0  0  0  0  0  0  0
   55.0084   -4.5788   -8.4138 H   0  0  0  0  0  0  0  0  0  0  0  0
   50.9241   -4.2457   -5.7811 C   0  0  0  0  0  0  0  0  0  0  0  0
   50.6437   -3.2166   -6.6599 C   0  0  0  0  0  0  0  0  0  0  0  0
   51.4309   -2.9626   -7.7629 C   0  0  0  0  0  0  0  0  0  0  0  0
   52.5399   -3.7368   -8.0277 C   0  0  0  0  0  0  0  0  0  0  0  0
   52.8527   -4.7641   -7.1817 C   0  0  0  0  0  0  0  0  0  0  0  0
   52.0347   -4.9961   -6.0741 C   0  0  0  0  0  0  0  0  0  0  0  0
   49.1869   -5.7102   -4.9214 C   0  0  0  0  0  0  0  0  0  0  0  0
   50.0732   -4.5285   -4.5821 C   0  0  0  0  0  0  0  0  0  0  0  0
   49.1662   -3.3496   -4.3186 C   0  0  0  0  0  0  0  0  0  0  0  0
   50.9134   -4.7974   -3.3503 C   0  0  0  0  0  0  0  0  0  0  0  0
   55.6128   -3.8903  -10.3256 C   0  0  0  0  0  0  0  0  0  0  0  0
   56.9227   -4.5122  -10.0162 C   0  0  0  0  0  0  0  0  0  0  0  0
   57.1178   -5.0098   -8.7113 C   0  0  0  0  0  0  0  0  0  0  0  0
   58.2907   -5.6254   -8.3598 C   0  0  0  0  0  0  0  0  0  0  0  0
   59.3480   -5.7970   -9.2511 C   0  0  0  0  0  0  0  0  0  0  0  0
   59.1664   -5.3115  -10.5301 C   0  0  0  0  0  0  0  0  0  0  0  0
   60.1629   -5.4578  -11.4399 F   0  0  0  0  0  0  0  0  0  0  0  0
   57.9659   -4.6837  -10.8824 C   0  0  0  0  0  0  0  0  0  0  0  0
   60.5570   -6.4715   -8.8208 C   0  0  0  0  0  0  0  0  0  0  0  0
   61.4798   -5.7649   -8.3277 O   0  0  0  0  0  0  0  0  0  0  0  0
   60.6981   -7.8267   -8.9402 O   0  0  0  0  0  0  0  0  0  0  0  0
   60.3970   -8.5165   -8.2432 H   0  0  0  0  0  0  0  0  0  0  0  0
 11 12  1  0  0  0
 12 13  1  0  0  0
 12 14  1  0  0  0
 12  5  1  0  0  0
  5  6  2  0  0  0
  6  7  1  0  0  0
  7  8  2  0  0  0
  8  1  1  0  0  0
  1  2  2  0  0  0
  1  3  1  0  0  0
  3 15  1  0  0  0
 15 16  1  0  0  0
 16 17  2  0  0  0
 17 18  1  0  0  0
 18 19  2  0  0  0
 19 23  1  0  0  0
 23 24  2  0  0  0
 23 25  1  0  0  0
 19 20  1  0  0  0
 20 21  1  0  0  0
 20 22  2  0  0  0
  8  9  1  0  0  0
  9 10  2  0  0  0
 10  5  1  0  0  0
 22 16  1  0  0  0
  3  4  1  0  0  0
 25 26  1  0  0  0
M  END
> <minimizedAffinity>
-8.01105

> <CNNscore>
0.4288091063

> <CNNaffinity>
5.6118612289

> <CNN_VS>
2.4064171314

> <CNNaffinity_variance>
0.2529867291

$$$$
[H]OC(=O)c1c([H])c([H])c(C([H])([H])N([H])C(=O)c2c([H])c([H])c(C(C([H])([H])[H])(C([H])([H])[H])C([H])([H])[H])c([H])c2[H])c([H])c1F


 26 27  0  0  0  0  0  0  0  0999 V2000
   57.1485   -4.5204  -11.2738 C   0  0  0  0  0  0  0  0  0  0  0  0
   58.1204   -5.1169  -10.7235 O   0  0  0  0  0  0  0  0  0  0  0  0
   56.0705   -4.1030  -10.4838 N   0  0  0  0  0  0  0  0  0  0  0  0
   55.2738   -3.5922  -10.9750 H   0  0  0  0  0  0  0  0  0  0  0  0
   57.1392   -3.7111  -15.4649 C   0  0  0  0  0  0  0  0  0  0  0  0
   56.0796   -4.3510  -14.8506 C   0  0  0  0  0  0  0  0  0  0  0  0
   56.0755   -4.6252  -13.4995 C   0  0  0  0  0  0  0  0  0  0  0  0
   57.1442   -4.2663  -12.7066 C   0  0  0  0  0  0  0  0  0  0  0  0
   58.2131   -3.6325  -13.2762 C   0  0  0  0  0  0  0  0  0  0  0  0
   58.1860   -3.3682  -14.6470 C   0  0  0  0  0  0  0  0  0  0  0  0
   57.5772   -4.6710  -17.6533 C   0  0  0  0  0  0  0  0  0  0  0  0
   57.1502   -3.4087  -16.9313 C   0  0  0  0  0  0  0  0  0  0  0  0
   58.1918   -2.3534  -17.2204 C   0  0  0  0  0  0  0  0  0  0  0  0
   55.7987   -2.9214  -17.4124 C   0  0  0  0  0  0  0  0  0  0  0  0
   55.9142   -4.2638   -9.0688 C   0  0  0  0  0  0  0  0  0  0  0  0
   54.5276   -4.0088   -8.6096 C   0  0  0  0  0  0  0  0  0  0  0  0
   53.9427   -4.9536   -7.7415 C   0  0  0  0  0  0  0  0  0  0  0  0
   52.6762   -4.7707   -7.2508 C   0  0  0  0  0  0  0  0  0  0  0  0
   51.8973   -3.6604   -7.5711 C   0  0  0  0  0  0  0  0  0  0  0  0
   52.4612   -2.7314   -8.4216 C   0  0  0  0  0  0  0  0  0  0  0  0
   51.7475   -1.6280   -8.7614 F   0  0  0  0  0  0  0  0  0  0  0  0
   53.7553   -2.9245   -8.9192 C   0  0  0  0  0  0  0  0  0  0  0  0
   50.5701   -3.5183   -7.0054 C   0  0  0  0  0  0  0  0  0  0  0  0
   50.4339   -3.7264   -5.7677 O   0  0  0  0  0  0  0  0  0  0  0  0
   49.4987   -3.1688   -7.7806 O   0  0  0  0  0  0  0  0  0  0  0  0
   49.2096   -2.2073   -7.9913 H   0  0  0  0  0  0  0  0  0  0  0  0
 11 12  1  0  0  0
 12 13  1  0  0  0
 12 14  1  0  0  0
 12  5  1  0  0  0
  5  6  2  0  0  0
  6  7  1  0  0  0
  7  8  2  0  0  0
  8  1  1  0  0  0
  1  2  2  0  0  0
  1  3  1  0  0  0
  3 15  1  0  0  0
 15 16  1  0  0  0
 16 17  2  0  0  0
 17 18  1  0  0  0
 18 19  2  0  0  0
 19 23  1  0  0  0
 23 24  2  0  0  0
 23 25  1  0  0  0
 19 20  1  0  0  0
 20 21  1  0  0  0
 20 22  2  0  0  0
  8  9  1  0  0  0
  9 10  2  0  0  0
 10  5  1  0  0  0
 22 16  1  0  0  0
  3  4  1  0  0  0
 25 26  1  0  0  0
M  END
> <minimizedAffinity>
-8.50657

> <CNNscore>
0.3431643546

> <CNNaffinity>
5.3739805222

> <CNN_VS>
1.8441585302

> <CNNaffinity_variance>
0.0593737252

$$$$
[H]OC(=O)c1c([H])c([H])c(C([H])([H])N([H])C(=O)c2c([H])c([H])c(C(C([H])([H])[H])(C([H])([H])[H])C([H])([H])[H])c([H])c2[H])c([H])c1F


 26 27  0  0  0  0  0  0  0  0999 V2000
   56.0221   -4.5533   -8.3060 C   0  0  0  0  0  0  0  0  0  0  0  0
   56.9544   -4.3787   -7.4671 O   0  0  0  0  0  0  0  0  0  0  0  0
   56.3481   -4.7753   -9.6494 N   0  0  0  0  0  0  0  0  0  0  0  0
   55.5410   -4.9315  -10.3285 H   0  0  0  0  0  0  0  0  0  0  0  0
   51.9421   -4.4150   -7.0591 C   0  0  0  0  0  0  0  0  0  0  0  0
   52.8304   -5.3281   -6.5235 C   0  0  0  0  0  0  0  0  0  0  0  0
   54.1480   -5.3876   -6.9249 C   0  0  0  0  0  0  0  0  0  0  0  0
   54.6285   -4.5270   -7.8882 C   0  0  0  0  0  0  0  0  0  0  0  0
   53.7813   -3.6094   -8.4442 C   0  0  0  0  0  0  0  0  0  0  0  0
   52.4529   -3.5740   -8.0153 C   0  0  0  0  0  0  0  0  0  0  0  0
   50.4853   -4.4401   -5.1151 C   0  0  0  0  0  0  0  0  0  0  0  0
   50.5102   -4.3435   -6.6274 C   0  0  0  0  0  0  0  0  0  0  0  0
   49.7614   -5.5403   -7.1650 C   0  0  0  0  0  0  0  0  0  0  0  0
   49.8410   -3.0750   -7.1160 C   0  0  0  0  0  0  0  0  0  0  0  0
   57.6567   -4.8390  -10.2290 C   0  0  0  0  0  0  0  0  0  0  0  0
   57.6839   -4.3886  -11.6413 C   0  0  0  0  0  0  0  0  0  0  0  0
   58.9383   -4.0709  -12.2017 C   0  0  0  0  0  0  0  0  0  0  0  0
   59.0464   -3.6770  -13.5099 C   0  0  0  0  0  0  0  0  0  0  0  0
   57.9453   -3.5663  -14.3568 C   0  0  0  0  0  0  0  0  0  0  0  0
   56.7133   -3.8735  -13.8162 C   0  0  0  0  0  0  0  0  0  0  0  0
   55.6082   -3.7879  -14.5995 F   0  0  0  0  0  0  0  0  0  0  0  0
   56.6101   -4.2751  -12.4792 C   0  0  0  0  0  0  0  0  0  0  0  0
   58.1294   -3.1594  -15.7360 C   0  0  0  0  0  0  0  0  0  0  0  0
   57.8160   -3.9847  -16.6386 O   0  0  0  0  0  0  0  0  0  0  0  0
   58.6231   -1.9243  -16.0548 O   0  0  0  0  0  0  0  0  0  0  0  0
   58.0607   -1.0741  -16.1699 H   0  0  0  0  0  0  0  0  0  0  0  0
 11 12  1  0  0  0
 12 13  1  0  0  0
 12 14  1  0  0  0
 12  5  1  0  0  0
  5  6  2  0  0  0
  6  7  1  0  0  0
  7  8  2  0  0  0
  8  1  1  0  0  0
  1  2  2  0  0  0
  1  3  1  0  0  0
  3 15  1  0  0  0
 15 16  1  0  0  0
 16 17  2  0  0  0
 17 18  1  0  0  0
 18 19  2  0  0  0
 19 23  1  0  0  0
 23 24  2  0  0  0
 23 25  1  0  0  0
 19 20  1  0  0  0
 20 21  1  0  0  0
 20 22  2  0  0  0
  8  9  1  0  0  0
  9 10  2  0  0  0
 10  5  1  0  0  0
 22 16  1  0  0  0
  3  4  1  0  0  0
 25 26  1  0  0  0
M  END
> <minimizedAffinity>
-8.94918

> <CNNscore>
0.2980684340

> <CNNaffinity>
5.7360830307

> <CNN_VS>
1.7097452879

> <CNNaffinity_variance>
0.1398120672

$$$$
[H]OC(=O)c1c([H])c([H])c(C([H])([H])N([H])C(=O)c2c([H])c([H])c(C(C([H])([H])[H])(C([H])([H])[H])C([H])([H])[H])c([H])c2[H])c([H])c1F


 26 27  0  0  0  0  0  0  0  0999 V2000
   54.9224   -3.5678   -8.7583 C   0  0  0  0  0  0  0  0  0  0  0  0
   54.8597   -2.3116   -8.6118 O   0  0  0  0  0  0  0  0  0  0  0  0
   53.7412   -4.3181   -8.7135 N   0  0  0  0  0  0  0  0  0  0  0  0
   53.8262   -5.3717   -8.8530 H   0  0  0  0  0  0  0  0  0  0  0  0
   58.6396   -5.5592   -9.4198 C   0  0  0  0  0  0  0  0  0  0  0  0
   58.1438   -5.3600   -8.1453 C   0  0  0  0  0  0  0  0  0  0  0  0
   56.9488   -4.7106   -7.9194 C   0  0  0  0  0  0  0  0  0  0  0  0
   56.2000   -4.2307   -8.9723 C   0  0  0  0  0  0  0  0  0  0  0  0
   56.6564   -4.4062  -10.2489 C   0  0  0  0  0  0  0  0  0  0  0  0
   57.8697   -5.0690  -10.4442 C   0  0  0  0  0  0  0  0  0  0  0  0
   60.5815   -5.6115  -10.8787 C   0  0  0  0  0  0  0  0  0  0  0  0
   59.9357   -6.2646   -9.6731 C   0  0  0  0  0  0  0  0  0  0  0  0
   59.6627   -7.7052  -10.0368 C   0  0  0  0  0  0  0  0  0  0  0  0
   60.8439   -6.2191   -8.4612 C   0  0  0  0  0  0  0  0  0  0  0  0
   52.4076   -3.8320   -8.5197 C   0  0  0  0  0  0  0  0  0  0  0  0
   51.8487   -4.1951   -7.1953 C   0  0  0  0  0  0  0  0  0  0  0  0
   50.6797   -3.5283   -6.7743 C   0  0  0  0  0  0  0  0  0  0  0  0
   50.0876   -3.8321   -5.5762 C   0  0  0  0  0  0  0  0  0  0  0  0
   50.5917   -4.8013   -4.7111 C   0  0  0  0  0  0  0  0  0  0  0  0
   51.7367   -5.4578   -5.1143 C   0  0  0  0  0  0  0  0  0  0  0  0
   52.2666   -6.4154   -4.3115 F   0  0  0  0  0  0  0  0  0  0  0  0
   52.3364   -5.1424   -6.3393 C   0  0  0  0  0  0  0  0  0  0  0  0
   49.9086   -5.0866   -3.4647 C   0  0  0  0  0  0  0  0  0  0  0  0
   50.5846   -5.5956   -2.5277 O   0  0  0  0  0  0  0  0  0  0  0  0
   48.5781   -4.8140   -3.3026 O   0  0  0  0  0  0  0  0  0  0  0  0
   48.1921   -3.9174   -2.9871 H   0  0  0  0  0  0  0  0  0  0  0  0
 11 12  1  0  0  0
 12 13  1  0  0  0
 12 14  1  0  0  0
 12  5  1  0  0  0
  5  6  2  0  0  0
  6  7  1  0  0  0
  7  8  2  0  0  0
  8  1  1  0  0  0
  1  2  2  0  0  0
  1  3  1  0  0  0
  3 15  1  0  0  0
 15 16  1  0  0  0
 16 17  2  0  0  0
 17 18  1  0  0  0
 18 19  2  0  0  0
 19 23  1  0  0  0
 23 24  2  0  0  0
 23 25  1  0  0  0
 19 20  1  0  0  0
 20 21  1  0  0  0
 20 22  2  0  0  0
  8  9  1  0  0  0
  9 10  2  0  0  0
 10  5  1  0  0  0
 22 16  1  0  0  0
  3  4  1  0  0  0
 25 26  1  0  0  0
M  END
> <minimizedAffinity>
-7.80476

> <CNNscore>
0.2783026695

> <CNNaffinity>
5.4429855347

> <CNN_VS>
1.5147974491

> <CNNaffinity_variance>
0.1390433609

$$$$
[H]OC(=O)c1c([H])c([H])c(C([H])([H])N([H])C(=O)c2c([H])c([H])c(C(C([H])([H])[H])(C([H])([H])[H])C([H])([H])[H])c([H])c2[H])c([H])c1F


 26 27  0  0  0  0  0  0  0  0999 V2000
   52.9683   -2.9070   -8.7718 C   0  0  0  0  0  0  0  0  0  0  0  0
   53.2477   -1.7061   -9.0604 O   0  0  0  0  0  0  0  0  0  0  0  0
   53.6039   -3.9405   -9.4705 N   0  0  0  0  0  0  0  0  0  0  0  0
   53.3565   -4.9405   -9.1951 H   0  0  0  0  0  0  0  0  0  0  0  0
   50.1469   -3.7608   -5.6845 C   0  0  0  0  0  0  0  0  0  0  0  0
   51.2735   -4.5397   -5.8690 C   0  0  0  0  0  0  0  0  0  0  0  0
   52.1869   -4.2785   -6.8681 C   0  0  0  0  0  0  0  0  0  0  0  0
   52.0025   -3.2179   -7.7287 C   0  0  0  0  0  0  0  0  0  0  0  0
   50.8997   -2.4237   -7.5806 C   0  0  0  0  0  0  0  0  0  0  0  0
   49.9941   -2.7141   -6.5582 C   0  0  0  0  0  0  0  0  0  0  0  0
   48.2488   -2.8248   -4.4915 C   0  0  0  0  0  0  0  0  0  0  0  0
   49.1514   -4.0375   -4.6010 C   0  0  0  0  0  0  0  0  0  0  0  0
   49.8707   -4.1809   -3.2804 C   0  0  0  0  0  0  0  0  0  0  0  0
   48.3590   -5.2989   -4.8776 C   0  0  0  0  0  0  0  0  0  0  0  0
   54.5772   -3.8160  -10.5142 C   0  0  0  0  0  0  0  0  0  0  0  0
   55.8913   -4.3975  -10.1489 C   0  0  0  0  0  0  0  0  0  0  0  0
   56.8508   -4.5383  -11.1727 C   0  0  0  0  0  0  0  0  0  0  0  0
   58.0983   -5.0391  -10.9055 C   0  0  0  0  0  0  0  0  0  0  0  0
   58.4937   -5.4348   -9.6292 C   0  0  0  0  0  0  0  0  0  0  0  0
   57.5604   -5.3022   -8.6214 C   0  0  0  0  0  0  0  0  0  0  0  0
   57.8959   -5.6676   -7.3580 F   0  0  0  0  0  0  0  0  0  0  0  0
   56.2880   -4.7900   -8.9013 C   0  0  0  0  0  0  0  0  0  0  0  0
   59.8341   -5.9419   -9.4101 C   0  0  0  0  0  0  0  0  0  0  0  0
   60.6004   -6.0271  -10.4098 O   0  0  0  0  0  0  0  0  0  0  0  0
   60.2603   -6.3146   -8.1650 O   0  0  0  0  0  0  0  0  0  0  0  0
   60.6835   -5.6875   -7.4723 H   0  0  0  0  0  0  0  0  0  0  0  0
 11 12  1  0  0  0
 12 13  1  0  0  0
 12 14  1  0  0  0
 12  5  1  0  0  0
  5  6  2  0  0  0
  6  7  1  0  0  0
  7  8  2  0  0  0
  8  1  1  0  0  0
  1  2  2  0  0  0
  1  3  1  0  0  0
  3 15  1  0  0  0
 15 16  1  0  0  0
 16 17  2  0  0  0
 17 18  1  0  0  0
 18 19  2  0  0  0
 19 23  1  0  0  0
 23 24  2  0  0  0
 23 25  1  0  0  0
 19 20  1  0  0  0
 20 21  1  0  0  0
 20 22  2  0  0  0
  8  9  1  0  0  0
  9 10  2  0  0  0
 10  5  1  0  0  0
 22 16  1  0  0  0
  3  4  1  0  0  0
 25 26  1  0  0  0
M  END
> <minimizedAffinity>
-8.20565

> <CNNscore>
0.2427803129

> <CNNaffinity>
5.5248389244

> <CNN_VS>
1.3413220644

> <CNNaffinity_variance>
0.1910483539

$$$$
[H]OC(=O)c1c([H])c([H])c(C([H])([H])N([H])C(=O)c2c([H])c([H])c(C(C([H])([H])[H])(C([H])([H])[H])C([H])([H])[H])c([H])c2[H])c([H])c1F


 26 27  0  0  0  0  0  0  0  0999 V2000
   53.3627   -4.2559   -8.2200 C   0  0  0  0  0  0  0  0  0  0  0  0
   52.3465   -3.5998   -8.5946 O   0  0  0  0  0  0  0  0  0  0  0  0
   54.4536   -4.3763   -9.0894 N   0  0  0  0  0  0  0  0  0  0  0  0
   55.2988   -4.9241   -8.7396 H   0  0  0  0  0  0  0  0  0  0  0  0
   53.5135   -6.1349   -4.3902 C   0  0  0  0  0  0  0  0  0  0  0  0
   52.3168   -5.7254   -4.9472 C   0  0  0  0  0  0  0  0  0  0  0  0
   52.2571   -5.1098   -6.1794 C   0  0  0  0  0  0  0  0  0  0  0  0
   53.4055   -4.8781   -6.9053 C   0  0  0  0  0  0  0  0  0  0  0  0
   54.6100   -5.2668   -6.3887 C   0  0  0  0  0  0  0  0  0  0  0  0
   54.6366   -5.8887   -5.1389 C   0  0  0  0  0  0  0  0  0  0  0  0
   54.1252   -5.7911   -2.0644 C   0  0  0  0  0  0  0  0  0  0  0  0
   53.5861   -6.8052   -3.0534 C   0  0  0  0  0  0  0  0  0  0  0  0
   54.5779   -7.9430   -3.1135 C   0  0  0  0  0  0  0  0  0  0  0  0
   52.2363   -7.3415   -2.6221 C   0  0  0  0  0  0  0  0  0  0  0  0
   54.5824   -3.8271  -10.4063 C   0  0  0  0  0  0  0  0  0  0  0  0
   55.9454   -3.9886  -10.9671 C   0  0  0  0  0  0  0  0  0  0  0  0
   56.1768   -3.5050  -12.2714 C   0  0  0  0  0  0  0  0  0  0  0  0
   57.4185   -3.5910  -12.8450 C   0  0  0  0  0  0  0  0  0  0  0  0
   58.5136   -4.1512  -12.1903 C   0  0  0  0  0  0  0  0  0  0  0  0
   58.2959   -4.6287  -10.9139 C   0  0  0  0  0  0  0  0  0  0  0  0
   59.3304   -5.1791  -10.2291 F   0  0  0  0  0  0  0  0  0  0  0  0
   57.0250   -4.5378  -10.3341 C   0  0  0  0  0  0  0  0  0  0  0  0
   59.8052   -4.1974  -12.8471 C   0  0  0  0  0  0  0  0  0  0  0  0
   60.6610   -5.0125  -12.4029 O   0  0  0  0  0  0  0  0  0  0  0  0
   60.0920   -3.3899  -13.9131 O   0  0  0  0  0  0  0  0  0  0  0  0
   59.8954   -3.6139  -14.8947 H   0  0  0  0  0  0  0  0  0  0  0  0
 11 12  1  0  0  0
 12 13  1  0  0  0
 12 14  1  0  0  0
 12  5  1  0  0  0
  5  6  2  0  0  0
  6  7  1  0  0  0
  7  8  2  0  0  0
  8  1  1  0  0  0
  1  2  2  0  0  0
  1  3  1  0  0  0
  3 15  1  0  0  0
 15 16  1  0  0  0
 16 17  2  0  0  0
 17 18  1  0  0  0
 18 19  2  0  0  0
 19 23  1  0  0  0
 23 24  2  0  0  0
 23 25  1  0  0  0
 19 20  1  0  0  0
 20 21  1  0  0  0
 20 22  2  0  0  0
  8  9  1  0  0  0
  9 10  2  0  0  0
 10  5  1  0  0  0
 22 16  1  0  0  0
  3  4  1  0  0  0
 25 26  1  0  0  0
M  END
> <minimizedAffinity>
-6.99327

> <CNNscore>
0.2327882499

> <CNNaffinity>
5.2452230453

> <CNN_VS>
1.2210263014

> <CNNaffinity_variance>
0.2292897999

$$$$
[H]OC(=O)c1c([H])c([H])c(C([H])([H])N([H])C(=O)c2c([H])c([H])c(C(C([H])([H])[H])(C([H])([H])[H])C([H])([H])[H])c([H])c2[H])c([H])c1F


 26 27  0  0  0  0  0  0  0  0999 V2000
   55.0827   -3.4840   -9.2473 C   0  0  0  0  0  0  0  0  0  0  0  0
   55.7377   -2.4105   -9.0989 O   0  0  0  0  0  0  0  0  0  0  0  0
   55.5164   -4.4209  -10.1931 N   0  0  0  0  0  0  0  0  0  0  0  0
   54.9508   -5.3200  -10.2848 H   0  0  0  0  0  0  0  0  0  0  0  0
   51.5939   -4.3207   -6.9345 C   0  0  0  0  0  0  0  0  0  0  0  0
   51.6428   -3.2493   -7.8061 C   0  0  0  0  0  0  0  0  0  0  0  0
   52.7671   -2.9646   -8.5516 C   0  0  0  0  0  0  0  0  0  0  0  0
   53.8954   -3.7494   -8.4489 C   0  0  0  0  0  0  0  0  0  0  0  0
   53.8882   -4.8182   -7.5966 C   0  0  0  0  0  0  0  0  0  0  0  0
   52.7336   -5.0805   -6.8566 C   0  0  0  0  0  0  0  0  0  0  0  0
   49.5857   -3.3531   -5.9685 C   0  0  0  0  0  0  0  0  0  0  0  0
   50.3762   -4.6370   -6.1228 C   0  0  0  0  0  0  0  0  0  0  0  0
   50.7932   -5.0752   -4.7386 C   0  0  0  0  0  0  0  0  0  0  0  0
   49.5449   -5.7299   -6.7633 C   0  0  0  0  0  0  0  0  0  0  0  0
   56.6583   -4.3256  -11.0529 C   0  0  0  0  0  0  0  0  0  0  0  0
   57.8848   -4.8982  -10.4476 C   0  0  0  0  0  0  0  0  0  0  0  0
   57.8585   -5.1878   -9.0678 C   0  0  0  0  0  0  0  0  0  0  0  0
   58.9433   -5.7469   -8.4441 C   0  0  0  0  0  0  0  0  0  0  0  0
   60.1216   -6.0601   -9.1190 C   0  0  0  0  0  0  0  0  0  0  0  0
   60.1568   -5.7783  -10.4695 C   0  0  0  0  0  0  0  0  0  0  0  0
   61.2788   -6.0690  -11.1759 F   0  0  0  0  0  0  0  0  0  0  0  0
   59.0452   -5.2072  -11.1002 C   0  0  0  0  0  0  0  0  0  0  0  0
   61.2279   -6.6652   -8.4038 C   0  0  0  0  0  0  0  0  0  0  0  0
   62.2905   -5.9932   -8.2885 O   0  0  0  0  0  0  0  0  0  0  0  0
   61.1292   -7.9199   -7.8682 O   0  0  0  0  0  0  0  0  0  0  0  0
   60.7683   -8.1371   -6.9328 H   0  0  0  0  0  0  0  0  0  0  0  0
 11 12  1  0  0  0
 12 13  1  0  0  0
 12 14  1  0  0  0
 12  5  1  0  0  0
  5  6  2  0  0  0
  6  7  1  0  0  0
  7  8  2  0  0  0
  8  1  1  0  0  0
  1  2  2  0  0  0
  1  3  1  0  0  0
  3 15  1  0  0  0
 15 16  1  0  0  0
 16 17  2  0  0  0
 17 18  1  0  0  0
 18 19  2  0  0  0
 19 23  1  0  0  0
 23 24  2  0  0  0
 23 25  1  0  0  0
 19 20  1  0  0  0
 20 21  1  0  0  0
 20 22  2  0  0  0
  8  9  1  0  0  0
  9 10  2  0  0  0
 10  5  1  0  0  0
 22 16  1  0  0  0
  3  4  1  0  0  0
 25 26  1  0  0  0
M  END
> <minimizedAffinity>
-7.40848

> <CNNscore>
0.2314820886

> <CNNaffinity>
5.3497600555

> <CNN_VS>
1.2383736372

> <CNNaffinity_variance>
0.1788950264

$$$$
[H]OC(=O)c1c([H])c([H])c(C([H])([H])N([H])C(=O)c2c([H])c([H])c(C(C([H])([H])[H])(C([H])([H])[H])C([H])([H])[H])c([H])c2[H])c([H])c1F


 26 27  0  0  0  0  0  0  0  0999 V2000
   56.1305   -3.9905  -10.5705 C   0  0  0  0  0  0  0  0  0  0  0  0
   55.8389   -3.6524  -11.7554 O   0  0  0  0  0  0  0  0  0  0  0  0
   55.2252   -3.7093   -9.5401 N   0  0  0  0  0  0  0  0  0  0  0  0
   55.4943   -4.0182   -8.5557 H   0  0  0  0  0  0  0  0  0  0  0  0
   59.7982   -6.0126   -9.7461 C   0  0  0  0  0  0  0  0  0  0  0  0
   58.8489   -5.8088   -8.7626 C   0  0  0  0  0  0  0  0  0  0  0  0
   57.6647   -5.1496   -9.0154 C   0  0  0  0  0  0  0  0  0  0  0  0
   57.3861   -4.6640  -10.2748 C   0  0  0  0  0  0  0  0  0  0  0  0
   58.3000   -4.8437  -11.2754 C   0  0  0  0  0  0  0  0  0  0  0  0
   59.4891   -5.5165  -10.9873 C   0  0  0  0  0  0  0  0  0  0  0  0
   62.0142   -6.4445  -10.6431 C   0  0  0  0  0  0  0  0  0  0  0  0
   61.0857   -6.7288   -9.4795 C   0  0  0  0  0  0  0  0  0  0  0  0
   60.8383   -8.2188   -9.4577 C   0  0  0  0  0  0  0  0  0  0  0  0
   61.6992   -6.3050   -8.1604 C   0  0  0  0  0  0  0  0  0  0  0  0
   53.9511   -3.0640   -9.6524 C   0  0  0  0  0  0  0  0  0  0  0  0
   53.0051   -3.4667   -8.5840 C   0  0  0  0  0  0  0  0  0  0  0  0
   53.3130   -4.6251   -7.8413 C   0  0  0  0  0  0  0  0  0  0  0  0
   52.5025   -5.0424   -6.8180 C   0  0  0  0  0  0  0  0  0  0  0  0
   51.3426   -4.3629   -6.4507 C   0  0  0  0  0  0  0  0  0  0  0  0
   51.0325   -3.2289   -7.1734 C   0  0  0  0  0  0  0  0  0  0  0  0
   49.9165   -2.5260   -6.8531 F   0  0  0  0  0  0  0  0  0  0  0  0
   51.8648   -2.8084   -8.2175 C   0  0  0  0  0  0  0  0  0  0  0  0
   50.5366   -4.8480   -5.3476 C   0  0  0  0  0  0  0  0  0  0  0  0
   50.4979   -6.0948   -5.1524 O   0  0  0  0  0  0  0  0  0  0  0  0
   49.8414   -3.9893   -4.5413 O   0  0  0  0  0  0  0  0  0  0  0  0
   50.2154   -3.5314   -3.7030 H   0  0  0  0  0  0  0  0  0  0  0  0
 11 12  1  0  0  0
 12 13  1  0  0  0
 12 14  1  0  0  0
 12  5  1  0  0  0
  5  6  2  0  0  0
  6  7  1  0  0  0
  7  8  2  0  0  0
  8  1  1  0  0  0
  1  2  2  0  0  0
  1  3  1  0  0  0
  3 15  1  0  0  0
 15 16  1  0  0  0
 16 17  2  0  0  0
 17 18  1  0  0  0
 18 19  2  0  0  0
 19 23  1  0  0  0
 23 24  2  0  0  0
 23 25  1  0  0  0
 19 20  1  0  0  0
 20 21  1  0  0  0
 20 22  2  0  0  0
  8  9  1  0  0  0
  9 10  2  0  0  0
 10  5  1  0  0  0
 22 16  1  0  0  0
  3  4  1  0  0  0
 25 26  1  0  0  0
M  END
> <minimizedAffinity>
-8.04295

> <CNNscore>
0.2210187018

> <CNNaffinity>
5.2614669800

> <CNN_VS>
1.1628825665

> <CNNaffinity_variance>
0.0423911288

$$$$
[H]Oc1c([H])c(O[H])c([H])c([C@@]([H])(O[H])C([H])([H])N([H])[C@@]([H])(C([H])([H])[H])C([H])([H])c2c([H])c([H])c(OC([H])([H])[H])c([H])c2[H])c1[H]


 27 28  0  0  0  0  0  0  0  0999 V2000
   53.0116   -6.3587   -7.1037 C   0  0  0  0  0  0  0  0  0  0  0  0
   52.2292   -5.7108   -6.0160 C   0  0  0  0  0  0  0  0  0  0  0  0
   51.1655   -6.6048   -5.6228 O   0  0  0  0  0  0  0  0  0  0  0  0
   51.3691   -6.8658   -4.7102 H   0  0  0  0  0  0  0  0  0  0  0  0
   51.4916   -4.4741   -6.4271 C   0  0  0  0  0  0  0  0  0  0  0  0
   51.8492   -3.6936   -7.4863 C   0  0  0  0  0  0  0  0  0  0  0  0
   51.1299   -2.5463   -7.8384 C   0  0  0  0  0  0  0  0  0  0  0  0
   51.4800   -1.7435   -8.9104 O   0  0  0  0  0  0  0  0  0  0  0  0
   50.0337   -2.2101   -7.0853 C   0  0  0  0  0  0  0  0  0  0  0  0
   49.6256   -2.9563   -6.0090 C   0  0  0  0  0  0  0  0  0  0  0  0
   48.5099   -2.5841   -5.2709 O   0  0  0  0  0  0  0  0  0  0  0  0
   50.3647   -4.0780   -5.6992 C   0  0  0  0  0  0  0  0  0  0  0  0
   51.0477   -2.0066   -9.8103 H   0  0  0  0  0  0  0  0  0  0  0  0
   47.6211   -2.9826   -5.6097 H   0  0  0  0  0  0  0  0  0  0  0  0
   54.4012   -6.3122   -7.0941 N   0  0  0  0  0  0  0  0  0  0  0  0
   54.8826   -7.0529   -7.6635 H   0  0  0  0  0  0  0  0  0  0  0  0
   55.1612   -5.7139   -6.1007 C   0  0  0  0  0  0  0  0  0  0  0  0
   56.0781   -6.6717   -5.3956 C   0  0  0  0  0  0  0  0  0  0  0  0
   55.8642   -4.4340   -6.4620 C   0  0  0  0  0  0  0  0  0  0  0  0
   57.4278   -4.7792  -10.4696 C   0  0  0  0  0  0  0  0  0  0  0  0
   58.1015   -5.2999   -9.3848 C   0  0  0  0  0  0  0  0  0  0  0  0
   57.5986   -5.1921   -8.0987 C   0  0  0  0  0  0  0  0  0  0  0  0
   56.3964   -4.5561   -7.8456 C   0  0  0  0  0  0  0  0  0  0  0  0
   55.7207   -4.0343   -8.9308 C   0  0  0  0  0  0  0  0  0  0  0  0
   56.2300   -4.1462  -10.2129 C   0  0  0  0  0  0  0  0  0  0  0  0
   57.4228   -4.0665  -12.8188 C   0  0  0  0  0  0  0  0  0  0  0  0
   57.9126   -4.8749  -11.7727 O   0  0  0  0  0  0  0  0  0  0  0  0
 26 27  1  0  0  0
 27 20  1  0  0  0
 20 21  2  0  0  0
 21 22  1  0  0  0
 22 23  2  0  0  0
 23 19  1  0  0  0
 19 17  1  0  0  0
 17 18  1  0  0  0
 17 15  1  0  0  0
 15  1  1  0  0  0
  1  2  1  0  0  0
  2  3  1  0  0  0
  2  5  1  0  0  0
  5  6  2  0  0  0
  6  7  1  0  0  0
  7  8  1  0  0  0
  7  9  2  0  0  0
  9 10  1  0  0  0
 10 11  1  0  0  0
 10 12  2  0  0  0
 23 24  1  0  0  0
 24 25  2  0  0  0
 25 20  1  0  0  0
 12  5  1  0  0  0
 15 16  1  0  0  0
  3  4  1  0  0  0
  8 13  1  0  0  0
 11 14  1  0  0  0
M  END
> <minimizedAffinity>
-9.17899

> <CNNscore>
0.6125451326

> <CNNaffinity>
6.0288858414

> <CNN_VS>
3.6929647923

> <CNNaffinity_variance>
0.0793335587

$$$$
[H]Oc1c([H])c(O[H])c([H])c([C@@]([H])(O[H])C([H])([H])N([H])[C@@]([H])(C([H])([H])[H])C([H])([H])c2c([H])c([H])c(OC([H])([H])[H])c([H])c2[H])c1[H]


 27 28  0  0  0  0  0  0  0  0999 V2000
   53.0792   -6.2424   -7.1426 C   0  0  0  0  0  0  0  0  0  0  0  0
   52.2868   -5.6949   -6.0079 C   0  0  0  0  0  0  0  0  0  0  0  0
   51.2943   -6.6731   -5.6292 O   0  0  0  0  0  0  0  0  0  0  0  0
   51.5394   -6.9594   -4.7346 H   0  0  0  0  0  0  0  0  0  0  0  0
   51.4599   -4.4928   -6.3446 C   0  0  0  0  0  0  0  0  0  0  0  0
   50.3547   -4.1109   -5.6434 C   0  0  0  0  0  0  0  0  0  0  0  0
   49.6111   -2.9776   -5.9905 C   0  0  0  0  0  0  0  0  0  0  0  0
   48.4869   -2.5768   -5.2891 O   0  0  0  0  0  0  0  0  0  0  0  0
   50.0196   -2.2385   -7.0715 C   0  0  0  0  0  0  0  0  0  0  0  0
   51.1230   -2.5729   -7.8148 C   0  0  0  0  0  0  0  0  0  0  0  0
   51.5057   -1.7993   -8.9024 O   0  0  0  0  0  0  0  0  0  0  0  0
   51.8248   -3.6975   -7.4360 C   0  0  0  0  0  0  0  0  0  0  0  0
   48.6706   -1.9291   -4.5064 H   0  0  0  0  0  0  0  0  0  0  0  0
   52.1590   -1.0347   -8.6741 H   0  0  0  0  0  0  0  0  0  0  0  0
   54.4682   -6.2636   -7.0847 N   0  0  0  0  0  0  0  0  0  0  0  0
   54.9310   -7.0457   -7.6128 H   0  0  0  0  0  0  0  0  0  0  0  0
   55.2229   -5.6703   -6.0843 C   0  0  0  0  0  0  0  0  0  0  0  0
   56.1140   -6.6374   -5.3590 C   0  0  0  0  0  0  0  0  0  0  0  0
   55.9513   -4.4043   -6.4439 C   0  0  0  0  0  0  0  0  0  0  0  0
   57.3340   -4.7311  -10.5190 C   0  0  0  0  0  0  0  0  0  0  0  0
   56.1527   -4.0915  -10.2069 C   0  0  0  0  0  0  0  0  0  0  0  0
   55.7101   -3.9837   -8.8988 C   0  0  0  0  0  0  0  0  0  0  0  0
   56.4347   -4.5138   -7.8463 C   0  0  0  0  0  0  0  0  0  0  0  0
   57.6176   -5.1545   -8.1574 C   0  0  0  0  0  0  0  0  0  0  0  0
   58.0531   -5.2580   -9.4670 C   0  0  0  0  0  0  0  0  0  0  0  0
   57.0701   -4.3745  -12.9335 C   0  0  0  0  0  0  0  0  0  0  0  0
   57.8007   -4.8526  -11.8265 O   0  0  0  0  0  0  0  0  0  0  0  0
 26 27  1  0  0  0
 27 20  1  0  0  0
 20 21  2  0  0  0
 21 22  1  0  0  0
 22 23  2  0  0  0
 23 19  1  0  0  0
 19 17  1  0  0  0
 17 18  1  0  0  0
 17 15  1  0  0  0
 15  1  1  0  0  0
  1  2  1  0  0  0
  2  3  1  0  0  0
  2  5  1  0  0  0
  5  6  2  0  0  0
  6  7  1  0  0  0
  7  8  1  0  0  0
  7  9  2  0  0  0
  9 10  1  0  0  0
 10 11  1  0  0  0
 10 12  2  0  0  0
 23 24  1  0  0  0
 24 25  2  0  0  0
 25 20  1  0  0  0
 12  5  1  0  0  0
 15 16  1  0  0  0
  3  4  1  0  0  0
  8 13  1  0  0  0
 11 14  1  0  0  0
M  END
> <minimizedAffinity>
-9.13069

> <CNNscore>
0.5983747840

> <CNNaffinity>
5.9697256088

> <CNN_VS>
3.5721333027

> <CNNaffinity_variance>
0.0628556013

$$$$
[H]Oc1c([H])c(O[H])c([H])c([C@@]([H])(O[H])C([H])([H])N([H])[C@@]([H])(C([H])([H])[H])C([H])([H])c2c([H])c([H])c(OC([H])([H])[H])c([H])c2[H])c1[H]


 27 28  0  0  0  0  0  0  0  0999 V2000
   52.8161   -3.2358   -7.8508 C   0  0  0  0  0  0  0  0  0  0  0  0
   51.3295   -3.2353   -7.9219 C   0  0  0  0  0  0  0  0  0  0  0  0
   50.8870   -1.8963   -8.2327 O   0  0  0  0  0  0  0  0  0  0  0  0
   50.4823   -1.9540   -9.1132 H   0  0  0  0  0  0  0  0  0  0  0  0
   50.6409   -3.5219   -6.6234 C   0  0  0  0  0  0  0  0  0  0  0  0
   49.6004   -2.7870   -6.1375 C   0  0  0  0  0  0  0  0  0  0  0  0
   48.9827   -3.0911   -4.9193 C   0  0  0  0  0  0  0  0  0  0  0  0
   47.9257   -2.3549   -4.4123 O   0  0  0  0  0  0  0  0  0  0  0  0
   49.4495   -4.1646   -4.2043 C   0  0  0  0  0  0  0  0  0  0  0  0
   50.4924   -4.9409   -4.6422 C   0  0  0  0  0  0  0  0  0  0  0  0
   50.9366   -6.0204   -3.8903 O   0  0  0  0  0  0  0  0  0  0  0  0
   51.0703   -4.6038   -5.8476 C   0  0  0  0  0  0  0  0  0  0  0  0
   46.9899   -2.6818   -4.7009 H   0  0  0  0  0  0  0  0  0  0  0  0
   50.4659   -6.9127   -4.1043 H   0  0  0  0  0  0  0  0  0  0  0  0
   53.5251   -4.4266   -7.9630 N   0  0  0  0  0  0  0  0  0  0  0  0
   53.0985   -5.1491   -8.5960 H   0  0  0  0  0  0  0  0  0  0  0  0
   54.4298   -4.8949   -7.0225 C   0  0  0  0  0  0  0  0  0  0  0  0
   54.5187   -6.3934   -6.9776 C   0  0  0  0  0  0  0  0  0  0  0  0
   55.7916   -4.2559   -7.0138 C   0  0  0  0  0  0  0  0  0  0  0  0
   57.5212   -4.6786  -10.9450 C   0  0  0  0  0  0  0  0  0  0  0  0
   56.3866   -3.9238  -10.7332 C   0  0  0  0  0  0  0  0  0  0  0  0
   55.8329   -3.7854   -9.4711 C   0  0  0  0  0  0  0  0  0  0  0  0
   56.3946   -4.3992   -8.3659 C   0  0  0  0  0  0  0  0  0  0  0  0
   57.5307   -5.1552   -8.5766 C   0  0  0  0  0  0  0  0  0  0  0  0
   58.0778   -5.2887   -9.8408 C   0  0  0  0  0  0  0  0  0  0  0  0
   57.7497   -4.0119  -13.2966 C   0  0  0  0  0  0  0  0  0  0  0  0
   58.0973   -4.8331  -12.2046 O   0  0  0  0  0  0  0  0  0  0  0  0
 26 27  1  0  0  0
 27 20  1  0  0  0
 20 21  2  0  0  0
 21 22  1  0  0  0
 22 23  2  0  0  0
 23 19  1  0  0  0
 19 17  1  0  0  0
 17 18  1  0  0  0
 17 15  1  0  0  0
 15  1  1  0  0  0
  1  2  1  0  0  0
  2  3  1  0  0  0
  2  5  1  0  0  0
  5  6  2  0  0  0
  6  7  1  0  0  0
  7  8  1  0  0  0
  7  9  2  0  0  0
  9 10  1  0  0  0
 10 11  1  0  0  0
 10 12  2  0  0  0
 23 24  1  0  0  0
 24 25  2  0  0  0
 25 20  1  0  0  0
 12  5  1  0  0  0
 15 16  1  0  0  0
  3  4  1  0  0  0
  8 13  1  0  0  0
 11 14  1  0  0  0
M  END
> <minimizedAffinity>
-9.10869

> <CNNscore>
0.5437861681

> <CNNaffinity>
6.1328635216

> <CNN_VS>
3.3349664211

> <CNNaffinity_variance>
0.0825387388

$$$$
[H]Oc1c([H])c(O[H])c([H])c([C@@]([H])(O[H])C([H])([H])N([H])[C@@]([H])(C([H])([H])[H])C([H])([H])c2c([H])c([H])c(OC([H])([H])[H])c([H])c2[H])c1[H]


 27 28  0  0  0  0  0  0  0  0999 V2000
   53.8392   -2.2114   -8.4481 C   0  0  0  0  0  0  0  0  0  0  0  0
   52.6597   -3.0518   -8.7913 C   0  0  0  0  0  0  0  0  0  0  0  0
   51.7188   -2.2407   -9.5274 O   0  0  0  0  0  0  0  0  0  0  0  0
   51.6876   -2.6231  -10.4191 H   0  0  0  0  0  0  0  0  0  0  0  0
   51.8556   -3.5118   -7.6147 C   0  0  0  0  0  0  0  0  0  0  0  0
   50.7308   -2.8820   -7.1710 C   0  0  0  0  0  0  0  0  0  0  0  0
   50.0064   -3.3473   -6.0680 C   0  0  0  0  0  0  0  0  0  0  0  0
   48.8629   -2.7193   -5.6051 O   0  0  0  0  0  0  0  0  0  0  0  0
   50.4544   -4.4728   -5.4243 C   0  0  0  0  0  0  0  0  0  0  0  0
   51.5789   -5.1489   -5.8247 C   0  0  0  0  0  0  0  0  0  0  0  0
   52.0010   -6.2854   -5.1478 O   0  0  0  0  0  0  0  0  0  0  0  0
   52.2606   -4.6540   -6.9160 C   0  0  0  0  0  0  0  0  0  0  0  0
   47.9821   -3.0523   -6.0284 H   0  0  0  0  0  0  0  0  0  0  0  0
   51.6055   -7.1678   -5.5064 H   0  0  0  0  0  0  0  0  0  0  0  0
   55.0718   -2.4523   -9.0448 N   0  0  0  0  0  0  0  0  0  0  0  0
   55.1762   -2.0945  -10.0275 H   0  0  0  0  0  0  0  0  0  0  0  0
   55.9471   -3.4577   -8.6634 C   0  0  0  0  0  0  0  0  0  0  0  0
   55.8986   -3.7623   -7.1937 C   0  0  0  0  0  0  0  0  0  0  0  0
   55.9417   -4.7129   -9.4926 C   0  0  0  0  0  0  0  0  0  0  0  0
   57.8533   -3.8646  -13.2677 C   0  0  0  0  0  0  0  0  0  0  0  0
   58.5834   -4.2190  -12.1527 C   0  0  0  0  0  0  0  0  0  0  0  0
   57.9700   -4.4943  -10.9415 C   0  0  0  0  0  0  0  0  0  0  0  0
   56.5959   -4.4257  -10.7972 C   0  0  0  0  0  0  0  0  0  0  0  0
   55.8636   -4.0711  -11.9128 C   0  0  0  0  0  0  0  0  0  0  0  0
   56.4840   -3.7975  -13.1194 C   0  0  0  0  0  0  0  0  0  0  0  0
   57.6880   -3.3275  -15.6574 C   0  0  0  0  0  0  0  0  0  0  0  0
   58.4467   -3.5831  -14.4968 O   0  0  0  0  0  0  0  0  0  0  0  0
 26 27  1  0  0  0
 27 20  1  0  0  0
 20 21  2  0  0  0
 21 22  1  0  0  0
 22 23  2  0  0  0
 23 19  1  0  0  0
 19 17  1  0  0  0
 17 18  1  0  0  0
 17 15  1  0  0  0
 15  1  1  0  0  0
  1  2  1  0  0  0
  2  3  1  0  0  0
  2  5  1  0  0  0
  5  6  2  0  0  0
  6  7  1  0  0  0
  7  8  1  0  0  0
  7  9  2  0  0  0
  9 10  1  0  0  0
 10 11  1  0  0  0
 10 12  2  0  0  0
 23 24  1  0  0  0
 24 25  2  0  0  0
 25 20  1  0  0  0
 12  5  1  0  0  0
 15 16  1  0  0  0
  3  4  1  0  0  0
  8 13  1  0  0  0
 11 14  1  0  0  0
M  END
> <minimizedAffinity>
-8.41356

> <CNNscore>
0.5437824130

> <CNNaffinity>
5.8511772156

> <CNN_VS>
3.1817672253

> <CNNaffinity_variance>
0.0447525755

$$$$
[H]Oc1c([H])c(O[H])c([H])c([C@@]([H])(O[H])C([H])([H])N([H])[C@@]([H])(C([H])([H])[H])C([H])([H])c2c([H])c([H])c(OC([H])([H])[H])c([H])c2[H])c1[H]


 27 28  0  0  0  0  0  0  0  0999 V2000
   53.2006   -3.8782   -8.0890 C   0  0  0  0  0  0  0  0  0  0  0  0
   54.2520   -3.1207   -8.8211 C   0  0  0  0  0  0  0  0  0  0  0  0
   53.7823   -2.8669  -10.1628 O   0  0  0  0  0  0  0  0  0  0  0  0
   53.6776   -1.9038  -10.2239 H   0  0  0  0  0  0  0  0  0  0  0  0
   55.5237   -3.8775   -9.0497 C   0  0  0  0  0  0  0  0  0  0  0  0
   56.2309   -4.4908   -8.0584 C   0  0  0  0  0  0  0  0  0  0  0  0
   57.4147   -5.1910   -8.3160 C   0  0  0  0  0  0  0  0  0  0  0  0
   58.1441   -5.8187   -7.3209 O   0  0  0  0  0  0  0  0  0  0  0  0
   57.8641   -5.2534   -9.6105 C   0  0  0  0  0  0  0  0  0  0  0  0
   57.1956   -4.6566  -10.6492 C   0  0  0  0  0  0  0  0  0  0  0  0
   57.6818   -4.7423  -11.9471 O   0  0  0  0  0  0  0  0  0  0  0  0
   56.0341   -3.9777  -10.3483 C   0  0  0  0  0  0  0  0  0  0  0  0
   57.8785   -6.7999   -7.1400 H   0  0  0  0  0  0  0  0  0  0  0  0
   57.3390   -5.5567  -12.4788 H   0  0  0  0  0  0  0  0  0  0  0  0
   51.8846   -3.4293   -8.0848 N   0  0  0  0  0  0  0  0  0  0  0  0
   51.6424   -2.7314   -8.8324 H   0  0  0  0  0  0  0  0  0  0  0  0
   51.0475   -3.4576   -6.9799 C   0  0  0  0  0  0  0  0  0  0  0  0
   50.0296   -2.3534   -6.9767 C   0  0  0  0  0  0  0  0  0  0  0  0
   50.4309   -4.7843   -6.6295 C   0  0  0  0  0  0  0  0  0  0  0  0
   51.6494   -5.8455   -2.6278 C   0  0  0  0  0  0  0  0  0  0  0  0
   50.4428   -5.2248   -2.8739 C   0  0  0  0  0  0  0  0  0  0  0  0
   50.0499   -4.8867   -4.1585 C   0  0  0  0  0  0  0  0  0  0  0  0
   50.8520   -5.1573   -5.2526 C   0  0  0  0  0  0  0  0  0  0  0  0
   52.0605   -5.7788   -5.0076 C   0  0  0  0  0  0  0  0  0  0  0  0
   52.4458   -6.1134   -3.7211 C   0  0  0  0  0  0  0  0  0  0  0  0
   53.2228   -5.6456   -0.7539 C   0  0  0  0  0  0  0  0  0  0  0  0
   52.0671   -6.1957   -1.3451 O   0  0  0  0  0  0  0  0  0  0  0  0
 26 27  1  0  0  0
 27 20  1  0  0  0
 20 21  2  0  0  0
 21 22  1  0  0  0
 22 23  2  0  0  0
 23 19  1  0  0  0
 19 17  1  0  0  0
 17 18  1  0  0  0
 17 15  1  0  0  0
 15  1  1  0  0  0
  1  2  1  0  0  0
  2  3  1  0  0  0
  2  5  1  0  0  0
  5  6  2  0  0  0
  6  7  1  0  0  0
  7  8  1  0  0  0
  7  9  2  0  0  0
  9 10  1  0  0  0
 10 11  1  0  0  0
 10 12  2  0  0  0
 23 24  1  0  0  0
 24 25  2  0  0  0
 25 20  1  0  0  0
 12  5  1  0  0  0
 15 16  1  0  0  0
  3  4  1  0  0  0
  8 13  1  0  0  0
 11 14  1  0  0  0
M  END
> <minimizedAffinity>
-9.10282

> <CNNscore>
0.5371353626

> <CNNaffinity>
6.0001239777

> <CNN_VS>
3.2228786945

> <CNNaffinity_variance>
0.0436040312

$$$$
[H]Oc1c([H])c(O[H])c([H])c([C@@]([H])(O[H])C([H])([H])N([H])[C@@]([H])(C([H])([H])[H])C([H])([H])c2c([H])c([H])c(OC([H])([H])[H])c([H])c2[H])c1[H]


 27 28  0  0  0  0  0  0  0  0999 V2000
   53.0491   -3.7617   -8.1134 C   0  0  0  0  0  0  0  0  0  0  0  0
   54.1572   -3.0799   -8.8361 C   0  0  0  0  0  0  0  0  0  0  0  0
   53.7687   -2.9139  -10.2170 O   0  0  0  0  0  0  0  0  0  0  0  0
   53.6906   -1.9557  -10.3518 H   0  0  0  0  0  0  0  0  0  0  0  0
   55.4212   -3.8763   -8.9379 C   0  0  0  0  0  0  0  0  0  0  0  0
   56.1443   -4.0093  -10.0861 C   0  0  0  0  0  0  0  0  0  0  0  0
   57.3231   -4.7614  -10.1373 C   0  0  0  0  0  0  0  0  0  0  0  0
   58.0684   -4.9063  -11.2949 O   0  0  0  0  0  0  0  0  0  0  0  0
   57.7512   -5.3774   -8.9889 C   0  0  0  0  0  0  0  0  0  0  0  0
   57.0663   -5.2797   -7.8043 C   0  0  0  0  0  0  0  0  0  0  0  0
   57.5316   -5.9174   -6.6620 O   0  0  0  0  0  0  0  0  0  0  0  0
   55.9103   -4.5284   -7.8011 C   0  0  0  0  0  0  0  0  0  0  0  0
   58.7968   -4.1884  -11.4359 H   0  0  0  0  0  0  0  0  0  0  0  0
   58.1740   -5.3505   -6.0880 H   0  0  0  0  0  0  0  0  0  0  0  0
   51.8096   -3.1451   -7.9841 N   0  0  0  0  0  0  0  0  0  0  0  0
   51.6900   -2.2521   -8.5252 H   0  0  0  0  0  0  0  0  0  0  0  0
   50.9443   -3.3346   -6.9174 C   0  0  0  0  0  0  0  0  0  0  0  0
   49.8031   -2.3587   -6.8969 C   0  0  0  0  0  0  0  0  0  0  0  0
   50.4779   -4.7421   -6.6636 C   0  0  0  0  0  0  0  0  0  0  0  0
   51.6275   -5.8626   -2.6577 C   0  0  0  0  0  0  0  0  0  0  0  0
   50.3972   -5.2995   -2.9245 C   0  0  0  0  0  0  0  0  0  0  0  0
   50.0266   -4.9425   -4.2106 C   0  0  0  0  0  0  0  0  0  0  0  0
   50.8758   -5.1355   -5.2855 C   0  0  0  0  0  0  0  0  0  0  0  0
   52.1080   -5.6992   -5.0197 C   0  0  0  0  0  0  0  0  0  0  0  0
   52.4708   -6.0532   -3.7319 C   0  0  0  0  0  0  0  0  0  0  0  0
   53.1686   -5.6879   -0.7547 C   0  0  0  0  0  0  0  0  0  0  0  0
   52.0236   -6.2303   -1.3731 O   0  0  0  0  0  0  0  0  0  0  0  0
 26 27  1  0  0  0
 27 20  1  0  0  0
 20 21  2  0  0  0
 21 22  1  0  0  0
 22 23  2  0  0  0
 23 19  1  0  0  0
 19 17  1  0  0  0
 17 18  1  0  0  0
 17 15  1  0  0  0
 15  1  1  0  0  0
  1  2  1  0  0  0
  2  3  1  0  0  0
  2  5  1  0  0  0
  5  6  2  0  0  0
  6  7  1  0  0  0
  7  8  1  0  0  0
  7  9  2  0  0  0
  9 10  1  0  0  0
 10 11  1  0  0  0
 10 12  2  0  0  0
 23 24  1  0  0  0
 24 25  2  0  0  0
 25 20  1  0  0  0
 12  5  1  0  0  0
 15 16  1  0  0  0
  3  4  1  0  0  0
  8 13  1  0  0  0
 11 14  1  0  0  0
M  END
> <minimizedAffinity>
-9.10725

> <CNNscore>
0.5305390358

> <CNNaffinity>
6.0404262543

> <CNN_VS>
3.2046818733

> <CNNaffinity_variance>
0.0808718652

$$$$
[H]Oc1c([H])c(O[H])c([H])c([C@@]([H])(O[H])C([H])([H])N([H])[C@@]([H])(C([H])([H])[H])C([H])([H])c2c([H])c([H])c(OC([H])([H])[H])c([H])c2[H])c1[H]


 27 28  0  0  0  0  0  0  0  0999 V2000
   52.5664   -3.2859   -7.8750 C   0  0  0  0  0  0  0  0  0  0  0  0
   51.0810   -3.2071   -7.8236 C   0  0  0  0  0  0  0  0  0  0  0  0
   50.6897   -1.8287   -8.0028 O   0  0  0  0  0  0  0  0  0  0  0  0
   50.2147   -1.8011   -8.8490 H   0  0  0  0  0  0  0  0  0  0  0  0
   50.4816   -3.5548   -6.4962 C   0  0  0  0  0  0  0  0  0  0  0  0
   50.9323   -4.5667   -5.7012 C   0  0  0  0  0  0  0  0  0  0  0  0
   50.3445   -4.8567   -4.4650 C   0  0  0  0  0  0  0  0  0  0  0  0
   50.7902   -5.8804   -3.6466 O   0  0  0  0  0  0  0  0  0  0  0  0
   49.2836   -4.0903   -4.0543 C   0  0  0  0  0  0  0  0  0  0  0  0
   48.7864   -3.0593   -4.8104 C   0  0  0  0  0  0  0  0  0  0  0  0
   47.7108   -2.3052   -4.3605 O   0  0  0  0  0  0  0  0  0  0  0  0
   49.3969   -2.8101   -6.0212 C   0  0  0  0  0  0  0  0  0  0  0  0
   51.5226   -5.6097   -2.9712 H   0  0  0  0  0  0  0  0  0  0  0  0
   47.9723   -1.4807   -3.7989 H   0  0  0  0  0  0  0  0  0  0  0  0
   53.2037   -4.5206   -7.9270 N   0  0  0  0  0  0  0  0  0  0  0  0
   52.6731   -5.2832   -8.4184 H   0  0  0  0  0  0  0  0  0  0  0  0
   54.1929   -4.9327   -7.0472 C   0  0  0  0  0  0  0  0  0  0  0  0
   54.4407   -6.4135   -7.0824 C   0  0  0  0  0  0  0  0  0  0  0  0
   55.4791   -4.1526   -7.0584 C   0  0  0  0  0  0  0  0  0  0  0  0
   57.4344   -4.7214  -10.8634 C   0  0  0  0  0  0  0  0  0  0  0  0
   57.9690   -5.2229   -9.6953 C   0  0  0  0  0  0  0  0  0  0  0  0
   57.3402   -5.0432   -8.4742 C   0  0  0  0  0  0  0  0  0  0  0  0
   56.1464   -4.3516   -8.3727 C   0  0  0  0  0  0  0  0  0  0  0  0
   55.6101   -3.8488   -9.5415 C   0  0  0  0  0  0  0  0  0  0  0  0
   56.2445   -4.0326  -10.7577 C   0  0  0  0  0  0  0  0  0  0  0  0
   57.7468   -4.0663  -13.2086 C   0  0  0  0  0  0  0  0  0  0  0  0
   58.0474   -4.8889  -12.1037 O   0  0  0  0  0  0  0  0  0  0  0  0
 26 27  1  0  0  0
 27 20  1  0  0  0
 20 21  2  0  0  0
 21 22  1  0  0  0
 22 23  2  0  0  0
 23 19  1  0  0  0
 19 17  1  0  0  0
 17 18  1  0  0  0
 17 15  1  0  0  0
 15  1  1  0  0  0
  1  2  1  0  0  0
  2  3  1  0  0  0
  2  5  1  0  0  0
  5  6  2  0  0  0
  6  7  1  0  0  0
  7  8  1  0  0  0
  7  9  2  0  0  0
  9 10  1  0  0  0
 10 11  1  0  0  0
 10 12  2  0  0  0
 23 24  1  0  0  0
 24 25  2  0  0  0
 25 20  1  0  0  0
 12  5  1  0  0  0
 15 16  1  0  0  0
  3  4  1  0  0  0
  8 13  1  0  0  0
 11 14  1  0  0  0
M  END
> <minimizedAffinity>
-9.20565

> <CNNscore>
0.4578675628

> <CNNaffinity>
5.9949121475

> <CNN_VS>
2.7448759079

> <CNNaffinity_variance>
0.0322435610

$$$$
[H]Oc1c([H])c(O[H])c([H])c([C@@]([H])(O[H])C([H])([H])N([H])[C@@]([H])(C([H])([H])[H])C([H])([H])c2c([H])c([H])c(OC([H])([H])[H])c([H])c2[H])c1[H]


 27 28  0  0  0  0  0  0  0  0999 V2000
   55.6004   -5.0406   -5.1075 C   0  0  0  0  0  0  0  0  0  0  0  0
   55.9665   -5.8459   -6.3043 C   0  0  0  0  0  0  0  0  0  0  0  0
   57.3657   -6.1910   -6.2129 O   0  0  0  0  0  0  0  0  0  0  0  0
   57.3894   -7.1562   -6.1111 H   0  0  0  0  0  0  0  0  0  0  0  0
   55.8889   -5.1061   -7.6039 C   0  0  0  0  0  0  0  0  0  0  0  0
   54.8644   -4.2729   -7.9432 C   0  0  0  0  0  0  0  0  0  0  0  0
   54.8322   -3.5978   -9.1684 C   0  0  0  0  0  0  0  0  0  0  0  0
   53.7995   -2.7489   -9.5279 O   0  0  0  0  0  0  0  0  0  0  0  0
   55.8706   -3.7903  -10.0439 C   0  0  0  0  0  0  0  0  0  0  0  0
   56.9284   -4.6158   -9.7579 C   0  0  0  0  0  0  0  0  0  0  0  0
   57.9618   -4.7849  -10.6698 O   0  0  0  0  0  0  0  0  0  0  0  0
   56.9176   -5.2602   -8.5393 C   0  0  0  0  0  0  0  0  0  0  0  0
   53.9320   -1.7624   -9.2538 H   0  0  0  0  0  0  0  0  0  0  0  0
   58.7373   -4.1131  -10.5660 H   0  0  0  0  0  0  0  0  0  0  0  0
   54.9952   -5.6451   -4.0113 N   0  0  0  0  0  0  0  0  0  0  0  0
   55.4366   -5.4388   -3.0801 H   0  0  0  0  0  0  0  0  0  0  0  0
   54.2091   -6.7854   -4.0766 C   0  0  0  0  0  0  0  0  0  0  0  0
   54.9690   -8.0486   -3.7901 C   0  0  0  0  0  0  0  0  0  0  0  0
   52.8959   -6.7472   -3.3438 C   0  0  0  0  0  0  0  0  0  0  0  0
   50.1976   -4.1673   -5.5090 C   0  0  0  0  0  0  0  0  0  0  0  0
   51.2759   -4.7653   -6.1268 C   0  0  0  0  0  0  0  0  0  0  0  0
   52.1404   -5.5958   -5.4330 C   0  0  0  0  0  0  0  0  0  0  0  0
   51.9599   -5.8624   -4.0876 C   0  0  0  0  0  0  0  0  0  0  0  0
   50.8807   -5.2643   -3.4677 C   0  0  0  0  0  0  0  0  0  0  0  0
   50.0214   -4.4357   -4.1680 C   0  0  0  0  0  0  0  0  0  0  0  0
   49.7585   -2.2995   -7.0404 C   0  0  0  0  0  0  0  0  0  0  0  0
   49.3138   -3.3282   -6.1850 O   0  0  0  0  0  0  0  0  0  0  0  0
 26 27  1  0  0  0
 27 20  1  0  0  0
 20 21  2  0  0  0
 21 22  1  0  0  0
 22 23  2  0  0  0
 23 19  1  0  0  0
 19 17  1  0  0  0
 17 18  1  0  0  0
 17 15  1  0  0  0
 15  1  1  0  0  0
  1  2  1  0  0  0
  2  3  1  0  0  0
  2  5  1  0  0  0
  5  6  2  0  0  0
  6  7  1  0  0  0
  7  8  1  0  0  0
  7  9  2  0  0  0
  9 10  1  0  0  0
 10 11  1  0  0  0
 10 12  2  0  0  0
 23 24  1  0  0  0
 24 25  2  0  0  0
 25 20  1  0  0  0
 12  5  1  0  0  0
 15 16  1  0  0  0
  3  4  1  0  0  0
  8 13  1  0  0  0
 11 14  1  0  0  0
M  END
> <minimizedAffinity>
-7.86552

> <CNNscore>
0.4392016530

> <CNNaffinity>
5.8196258545

> <CNN_VS>
2.5559892654

> <CNNaffinity_variance>
0.0339586958

$$$$
[H]Oc1c([H])c(O[H])c([H])c([C@@]([H])(O[H])C([H])([H])N([H])[C@@]([H])(C([H])([H])[H])C([H])([H])c2c([H])c([H])c(OC([H])([H])[H])c([H])c2[H])c1[H]


 27 28  0  0  0  0  0  0  0  0999 V2000
   52.5185   -5.7097   -4.0593 C   0  0  0  0  0  0  0  0  0  0  0  0
   51.4734   -5.9164   -5.0986 C   0  0  0  0  0  0  0  0  0  0  0  0
   52.0959   -6.5006   -6.2633 O   0  0  0  0  0  0  0  0  0  0  0  0
   51.7154   -7.3901   -6.3429 H   0  0  0  0  0  0  0  0  0  0  0  0
   50.8702   -4.6566   -5.6385 C   0  0  0  0  0  0  0  0  0  0  0  0
   51.3042   -4.0310   -6.7695 C   0  0  0  0  0  0  0  0  0  0  0  0
   50.7098   -2.8555   -7.2415 C   0  0  0  0  0  0  0  0  0  0  0  0
   51.1388   -2.2084   -8.3876 O   0  0  0  0  0  0  0  0  0  0  0  0
   49.6592   -2.3292   -6.5338 C   0  0  0  0  0  0  0  0  0  0  0  0
   49.1786   -2.9138   -5.3896 C   0  0  0  0  0  0  0  0  0  0  0  0
   48.1123   -2.3513   -4.7005 O   0  0  0  0  0  0  0  0  0  0  0  0
   49.7952   -4.0704   -4.9621 C   0  0  0  0  0  0  0  0  0  0  0  0
   50.6769   -2.5145   -9.2587 H   0  0  0  0  0  0  0  0  0  0  0  0
   47.1846   -2.6853   -5.0027 H   0  0  0  0  0  0  0  0  0  0  0  0
   53.7814   -6.2713   -4.2106 N   0  0  0  0  0  0  0  0  0  0  0  0
   53.9884   -7.0932   -3.5891 H   0  0  0  0  0  0  0  0  0  0  0  0
   54.8808   -5.6060   -4.7314 C   0  0  0  0  0  0  0  0  0  0  0  0
   55.6499   -4.8308   -3.7004 C   0  0  0  0  0  0  0  0  0  0  0  0
   55.7931   -6.3996   -5.6263 C   0  0  0  0  0  0  0  0  0  0  0  0
   56.3242   -4.2374   -9.3233 C   0  0  0  0  0  0  0  0  0  0  0  0
   57.3937   -4.7896   -8.6502 C   0  0  0  0  0  0  0  0  0  0  0  0
   57.2234   -5.4863   -7.4651 C   0  0  0  0  0  0  0  0  0  0  0  0
   55.9708   -5.6590   -6.9038 C   0  0  0  0  0  0  0  0  0  0  0  0
   54.8990   -5.1066   -7.5767 C   0  0  0  0  0  0  0  0  0  0  0  0
   55.0775   -4.4119   -8.7604 C   0  0  0  0  0  0  0  0  0  0  0  0
   57.2197   -4.0339  -11.6000 C   0  0  0  0  0  0  0  0  0  0  0  0
   56.4695   -3.5325  -10.5167 O   0  0  0  0  0  0  0  0  0  0  0  0
 26 27  1  0  0  0
 27 20  1  0  0  0
 20 21  2  0  0  0
 21 22  1  0  0  0
 22 23  2  0  0  0
 23 19  1  0  0  0
 19 17  1  0  0  0
 17 18  1  0  0  0
 17 15  1  0  0  0
 15  1  1  0  0  0
  1  2  1  0  0  0
  2  3  1  0  0  0
  2  5  1  0  0  0
  5  6  2  0  0  0
  6  7  1  0  0  0
  7  8  1  0  0  0
  7  9  2  0  0  0
  9 10  1  0  0  0
 10 11  1  0  0  0
 10 12  2  0  0  0
 23 24  1  0  0  0
 24 25  2  0  0  0
 25 20  1  0  0  0
 12  5  1  0  0  0
 15 16  1  0  0  0
  3  4  1  0  0  0
  8 13  1  0  0  0
 11 14  1  0  0  0
M  END
> <minimizedAffinity>
-8.52515

> <CNNscore>
0.4109844565

> <CNNaffinity>
6.0249481201

> <CNN_VS>
2.4761600494

> <CNNaffinity_variance>
0.1065697223

$$$$
[H]c1nc(N2C([H])([H])C([H])([H])C(N3C([H])([H])C([H])([H])OC([H])([H])C3([H])[H])(C([H])(C([H])([H])[H])C([H])([H])[H])C([H])([H])C2([H])[H])c([H])c2c1C(=O)c1c(n([H])c3c([H])c(C#N)c([H])c([H])c13)C2(C([H])([H])[H])C([H])([H])[H]


 38 43  0  0  0  0  0  0  0  0999 V2000
   57.8158   -5.3652   -9.0446 C   0  0  0  0  0  0  0  0  0  0  0  0
   57.0427   -5.6784   -7.9574 C   0  0  0  0  0  0  0  0  0  0  0  0
   55.7565   -5.1455   -7.7943 C   0  0  0  0  0  0  0  0  0  0  0  0
   55.2966   -4.2953   -8.7662 C   0  0  0  0  0  0  0  0  0  0  0  0
   56.0972   -3.9947   -9.8550 C   0  0  0  0  0  0  0  0  0  0  0  0
   57.3232   -4.5269   -9.9723 N   0  0  0  0  0  0  0  0  0  0  0  0
   53.9693   -3.7150   -8.6468 C   0  0  0  0  0  0  0  0  0  0  0  0
   53.5353   -2.9275   -9.5406 O   0  0  0  0  0  0  0  0  0  0  0  0
   53.1542   -4.0499   -7.4949 C   0  0  0  0  0  0  0  0  0  0  0  0
   53.6593   -4.9065   -6.5481 C   0  0  0  0  0  0  0  0  0  0  0  0
   52.7238   -5.0698   -5.5705 N   0  0  0  0  0  0  0  0  0  0  0  0
   51.6279   -4.3351   -5.8703 C   0  0  0  0  0  0  0  0  0  0  0  0
   50.4198   -4.1529   -5.2208 C   0  0  0  0  0  0  0  0  0  0  0  0
   49.4713   -3.3295   -5.7730 C   0  0  0  0  0  0  0  0  0  0  0  0
   49.7592   -2.7059   -6.9693 C   0  0  0  0  0  0  0  0  0  0  0  0
   50.9604   -2.8853   -7.6176 C   0  0  0  0  0  0  0  0  0  0  0  0
   51.9015   -3.7041   -7.0668 C   0  0  0  0  0  0  0  0  0  0  0  0
   54.9851   -5.5232   -6.6107 C   0  0  0  0  0  0  0  0  0  0  0  0
   54.7718   -7.0425   -6.5621 C   0  0  0  0  0  0  0  0  0  0  0  0
   55.7020   -5.1786   -5.3063 C   0  0  0  0  0  0  0  0  0  0  0  0
   52.7963   -5.6528   -4.7171 H   0  0  0  0  0  0  0  0  0  0  0  0
   61.7354   -7.3675   -9.3915 C   0  0  0  0  0  0  0  0  0  0  0  0
   61.0106   -6.9185   -8.1044 C   0  0  0  0  0  0  0  0  0  0  0  0
   60.2107   -5.6679   -8.2778 C   0  0  0  0  0  0  0  0  0  0  0  0
   59.1309   -5.9103   -9.2146 N   0  0  0  0  0  0  0  0  0  0  0  0
   59.4827   -6.7532  -10.3508 C   0  0  0  0  0  0  0  0  0  0  0  0
   60.9864   -6.6355  -10.4847 C   0  0  0  0  0  0  0  0  0  0  0  0
   61.5899   -8.7554   -9.4356 N   0  0  0  0  0  0  0  0  0  0  0  0
   61.2913   -9.5589   -8.3664 C   0  0  0  0  0  0  0  0  0  0  0  0
   62.1576  -10.7928   -8.2919 C   0  0  0  0  0  0  0  0  0  0  0  0
   62.3852  -11.3838   -9.5059 O   0  0  0  0  0  0  0  0  0  0  0  0
   62.8803  -10.4815  -10.4523 C   0  0  0  0  0  0  0  0  0  0  0  0
   61.7986   -9.4392  -10.6488 C   0  0  0  0  0  0  0  0  0  0  0  0
   63.6678   -6.3821  -10.6965 C   0  0  0  0  0  0  0  0  0  0  0  0
   63.1652   -6.9414   -9.3639 C   0  0  0  0  0  0  0  0  0  0  0  0
   63.5747   -5.9336   -8.3487 C   0  0  0  0  0  0  0  0  0  0  0  0
   48.1863   -3.1144   -5.1157 C   0  0  0  0  0  0  0  0  0  0  0  0
   47.1769   -2.9382   -4.5807 N   0  0  0  0  0  0  0  0  0  0  0  0
 34 35  1  0  0  0
 35 36  1  0  0  0
 35 22  1  0  0  0
 22 28  1  0  0  0
 28 29  1  0  0  0
 29 30  1  0  0  0
 30 31  1  0  0  0
 31 32  1  0  0  0
 32 33  1  0  0  0
 22 23  1  0  0  0
 23 24  1  0  0  0
 24 25  1  0  0  0
 25  1  1  0  0  0
  1  2  2  0  0  0
  2  3  1  0  0  0
  3  4  2  0  0  0
  4  5  1  0  0  0
  5  6  2  0  0  0
  4  7  1  0  0  0
  7  8  2  0  0  0
  7  9  1  0  0  0
  9 10  2  0  0  0
 10 11  1  0  0  0
 11 12  1  0  0  0
 12 13  2  0  0  0
 13 14  1  0  0  0
 14 37  1  0  0  0
 37 38  3  0  0  0
 14 15  2  0  0  0
 15 16  1  0  0  0
 16 17  2  0  0  0
 10 18  1  0  0  0
 18 19  1  0  0  0
 18 20  1  0  0  0
 25 26  1  0  0  0
 26 27  1  0  0  0
 27 22  1  0  0  0
 33 28  1  0  0  0
  6  1  1  0  0  0
 17  9  1  0  0  0
 18  3  1  0  0  0
 17 12  1  0  0  0
 11 21  1  0  0  0
M  END
> <minimizedAffinity>
-8.52950

> <CNNscore>
0.4483868480

> <CNNaffinity>
7.2061653137

> <CNN_VS>
3.2311496735

> <CNNaffinity_variance>
0.5853134394

$$$$
[H]c1nc(N2C([H])([H])C([H])([H])C(N3C([H])([H])C([H])([H])OC([H])([H])C3([H])[H])(C([H])(C([H])([H])[H])C([H])([H])[H])C([H])([H])C2([H])[H])c([H])c2c1C(=O)c1c(n([H])c3c([H])c(C#N)c([H])c([H])c13)C2(C([H])([H])[H])C([H])([H])[H]


 38 43  0  0  0  0  0  0  0  0999 V2000
   54.2666   -5.3785   -6.8650 C   0  0  0  0  0  0  0  0  0  0  0  0
   55.4015   -5.8500   -6.2587 C   0  0  0  0  0  0  0  0  0  0  0  0
   56.6270   -5.9037   -6.9371 C   0  0  0  0  0  0  0  0  0  0  0  0
   56.6505   -5.4653   -8.2356 C   0  0  0  0  0  0  0  0  0  0  0  0
   55.4902   -4.9935   -8.8255 C   0  0  0  0  0  0  0  0  0  0  0  0
   54.3374   -4.9594   -8.1399 N   0  0  0  0  0  0  0  0  0  0  0  0
   57.8956   -5.4985   -8.9849 C   0  0  0  0  0  0  0  0  0  0  0  0
   57.9271   -5.0953  -10.1865 O   0  0  0  0  0  0  0  0  0  0  0  0
   59.0944   -5.9975   -8.3390 C   0  0  0  0  0  0  0  0  0  0  0  0
   59.0200   -6.4254   -7.0364 C   0  0  0  0  0  0  0  0  0  0  0  0
   60.2572   -6.8455   -6.6485 N   0  0  0  0  0  0  0  0  0  0  0  0
   61.1248   -6.6961   -7.6759 C   0  0  0  0  0  0  0  0  0  0  0  0
   62.4756   -6.9667   -7.8039 C   0  0  0  0  0  0  0  0  0  0  0  0
   63.1087   -6.7075   -8.9933 C   0  0  0  0  0  0  0  0  0  0  0  0
   62.3676   -6.1806  -10.0304 C   0  0  0  0  0  0  0  0  0  0  0  0
   61.0233   -5.9105   -9.9059 C   0  0  0  0  0  0  0  0  0  0  0  0
   60.3963   -6.1690   -8.7230 C   0  0  0  0  0  0  0  0  0  0  0  0
   57.7991   -6.4170   -6.2291 C   0  0  0  0  0  0  0  0  0  0  0  0
   58.0957   -5.5715   -4.9827 C   0  0  0  0  0  0  0  0  0  0  0  0
   57.5962   -7.8388   -5.7082 C   0  0  0  0  0  0  0  0  0  0  0  0
   60.5354   -7.2252   -5.7255 H   0  0  0  0  0  0  0  0  0  0  0  0
   50.4265   -4.8115   -4.7615 C   0  0  0  0  0  0  0  0  0  0  0  0
   51.8377   -4.4056   -4.2849 C   0  0  0  0  0  0  0  0  0  0  0  0
   52.9091   -5.3492   -4.7270 C   0  0  0  0  0  0  0  0  0  0  0  0
   53.0124   -5.3209   -6.1730 N   0  0  0  0  0  0  0  0  0  0  0  0
   51.7390   -5.2304   -6.8769 C   0  0  0  0  0  0  0  0  0  0  0  0
   50.7070   -5.7631   -5.9051 C   0  0  0  0  0  0  0  0  0  0  0  0
   49.8091   -3.6217   -5.1522 N   0  0  0  0  0  0  0  0  0  0  0  0
   48.8050   -2.9849   -4.4708 C   0  0  0  0  0  0  0  0  0  0  0  0
   47.6753   -2.5340   -5.3645 C   0  0  0  0  0  0  0  0  0  0  0  0
   48.0902   -2.0035   -6.5567 O   0  0  0  0  0  0  0  0  0  0  0  0
   48.9617   -2.8546   -7.2430 C   0  0  0  0  0  0  0  0  0  0  0  0
   50.1847   -3.0069   -6.3621 C   0  0  0  0  0  0  0  0  0  0  0  0
   50.5379   -5.7992   -2.4334 C   0  0  0  0  0  0  0  0  0  0  0  0
   49.6858   -5.5108   -3.6712 C   0  0  0  0  0  0  0  0  0  0  0  0
   48.4507   -4.8708   -3.1432 C   0  0  0  0  0  0  0  0  0  0  0  0
   64.5322   -6.9803   -9.1635 C   0  0  0  0  0  0  0  0  0  0  0  0
   65.6634   -7.1813   -9.2902 N   0  0  0  0  0  0  0  0  0  0  0  0
 34 35  1  0  0  0
 35 36  1  0  0  0
 35 22  1  0  0  0
 22 28  1  0  0  0
 28 29  1  0  0  0
 29 30  1  0  0  0
 30 31  1  0  0  0
 31 32  1  0  0  0
 32 33  1  0  0  0
 22 23  1  0  0  0
 23 24  1  0  0  0
 24 25  1  0  0  0
 25  1  1  0  0  0
  1  2  2  0  0  0
  2  3  1  0  0  0
  3  4  2  0  0  0
  4  5  1  0  0  0
  5  6  2  0  0  0
  4  7  1  0  0  0
  7  8  2  0  0  0
  7  9  1  0  0  0
  9 10  2  0  0  0
 10 11  1  0  0  0
 11 12  1  0  0  0
 12 13  2  0  0  0
 13 14  1  0  0  0
 14 37  1  0  0  0
 37 38  3  0  0  0
 14 15  2  0  0  0
 15 16  1  0  0  0
 16 17  2  0  0  0
 10 18  1  0  0  0
 18 19  1  0  0  0
 18 20  1  0  0  0
 25 26  1  0  0  0
 26 27  1  0  0  0
 27 22  1  0  0  0
 33 28  1  0  0  0
  6  1  1  0  0  0
 17  9  1  0  0  0
 18  3  1  0  0  0
 17 12  1  0  0  0
 11 21  1  0  0  0
M  END
> <minimizedAffinity>
9.59903

> <CNNscore>
0.4344607294

> <CNNaffinity>
7.0521483421

> <CNN_VS>
3.0638813972

> <CNNaffinity_variance>
1.2141077518

$$$$
[H]c1nc(N2C([H])([H])C([H])([H])C(N3C([H])([H])C([H])([H])OC([H])([H])C3([H])[H])(C([H])(C([H])([H])[H])C([H])([H])[H])C([H])([H])C2([H])[H])c([H])c2c1C(=O)c1c(n([H])c3c([H])c(C#N)c([H])c([H])c13)C2(C([H])([H])[H])C([H])([H])[H]


 38 43  0  0  0  0  0  0  0  0999 V2000
   59.4697   -6.3284   -7.8662 C   0  0  0  0  0  0  0  0  0  0  0  0
   58.3918   -6.3934   -7.0226 C   0  0  0  0  0  0  0  0  0  0  0  0
   57.1848   -5.7474   -7.3241 C   0  0  0  0  0  0  0  0  0  0  0  0
   57.1203   -5.0444   -8.4991 C   0  0  0  0  0  0  0  0  0  0  0  0
   58.2234   -4.9940   -9.3342 C   0  0  0  0  0  0  0  0  0  0  0  0
   59.3603   -5.6271   -9.0074 N   0  0  0  0  0  0  0  0  0  0  0  0
   55.8921   -4.3563   -8.8605 C   0  0  0  0  0  0  0  0  0  0  0  0
   55.8229   -3.7035   -9.9451 O   0  0  0  0  0  0  0  0  0  0  0  0
   54.7534   -4.4285   -7.9651 C   0  0  0  0  0  0  0  0  0  0  0  0
   54.8673   -5.1454   -6.7996 C   0  0  0  0  0  0  0  0  0  0  0  0
   53.6833   -5.0700   -6.1288 N   0  0  0  0  0  0  0  0  0  0  0  0
   52.8112   -4.3189   -6.8401 C   0  0  0  0  0  0  0  0  0  0  0  0
   51.5006   -3.9401   -6.6090 C   0  0  0  0  0  0  0  0  0  0  0  0
   50.8501   -3.1557   -7.5278 C   0  0  0  0  0  0  0  0  0  0  0  0
   51.5335   -2.7687   -8.6617 C   0  0  0  0  0  0  0  0  0  0  0  0
   52.8375   -3.1441   -8.8942 C   0  0  0  0  0  0  0  0  0  0  0  0
   53.4820   -3.9235   -7.9796 C   0  0  0  0  0  0  0  0  0  0  0  0
   56.0739   -5.8595   -6.3797 C   0  0  0  0  0  0  0  0  0  0  0  0
   55.6749   -7.3283   -6.1805 C   0  0  0  0  0  0  0  0  0  0  0  0
   56.4335   -5.3507   -4.9847 C   0  0  0  0  0  0  0  0  0  0  0  0
   53.4438   -5.5023   -5.2182 H   0  0  0  0  0  0  0  0  0  0  0  0
   63.3913   -8.0300   -6.7623 C   0  0  0  0  0  0  0  0  0  0  0  0
   63.0983   -6.9011   -7.7739 C   0  0  0  0  0  0  0  0  0  0  0  0
   61.8047   -7.0758   -8.5019 C   0  0  0  0  0  0  0  0  0  0  0  0
   60.7047   -6.9896   -7.5612 N   0  0  0  0  0  0  0  0  0  0  0  0
   60.9471   -7.6299   -6.2741 C   0  0  0  0  0  0  0  0  0  0  0  0
   62.0309   -8.6545   -6.5358 C   0  0  0  0  0  0  0  0  0  0  0  0
   63.9176   -7.3935   -5.6366 N   0  0  0  0  0  0  0  0  0  0  0  0
   65.2339   -7.0586   -5.4540 C   0  0  0  0  0  0  0  0  0  0  0  0
   65.7540   -7.4232   -4.0847 C   0  0  0  0  0  0  0  0  0  0  0  0
   64.8710   -7.1662   -3.0704 O   0  0  0  0  0  0  0  0  0  0  0  0
   63.6169   -7.7410   -3.2984 C   0  0  0  0  0  0  0  0  0  0  0  0
   63.0736   -7.0864   -4.5519 C   0  0  0  0  0  0  0  0  0  0  0  0
   63.7142  -10.4137   -7.5506 C   0  0  0  0  0  0  0  0  0  0  0  0
   64.3322   -9.0286   -7.3489 C   0  0  0  0  0  0  0  0  0  0  0  0
   64.9732   -8.7036   -8.6517 C   0  0  0  0  0  0  0  0  0  0  0  0
   49.4680   -2.7376   -7.3166 C   0  0  0  0  0  0  0  0  0  0  0  0
   48.3785   -2.3896   -7.1495 N   0  0  0  0  0  0  0  0  0  0  0  0
 34 35  1  0  0  0
 35 36  1  0  0  0
 35 22  1  0  0  0
 22 28  1  0  0  0
 28 29  1  0  0  0
 29 30  1  0  0  0
 30 31  1  0  0  0
 31 32  1  0  0  0
 32 33  1  0  0  0
 22 23  1  0  0  0
 23 24  1  0  0  0
 24 25  1  0  0  0
 25  1  1  0  0  0
  1  2  2  0  0  0
  2  3  1  0  0  0
  3  4  2  0  0  0
  4  5  1  0  0  0
  5  6  2  0  0  0
  4  7  1  0  0  0
  7  8  2  0  0  0
  7  9  1  0  0  0
  9 10  2  0  0  0
 10 11  1  0  0  0
 11 12  1  0  0  0
 12 13  2  0  0  0
 13 14  1  0  0  0
 14 37  1  0  0  0
 37 38  3  0  0  0
 14 15  2  0  0  0
 15 16  1  0  0  0
 16 17  2  0  0  0
 10 18  1  0  0  0
 18 19  1  0  0  0
 18 20  1  0  0  0
 25 26  1  0  0  0
 26 27  1  0  0  0
 27 22  1  0  0  0
 33 28  1  0  0  0
  6  1  1  0  0  0
 17  9  1  0  0  0
 18  3  1  0  0  0
 17 12  1  0  0  0
 11 21  1  0  0  0
M  END
> <minimizedAffinity>
-3.07538

> <CNNscore>
0.4220583141

> <CNNaffinity>
6.7216010094

> <CNN_VS>
2.8369076252

> <CNNaffinity_variance>
0.6040879488

$$$$
[H]c1nc(N2C([H])([H])C([H])([H])C(N3C([H])([H])C([H])([H])OC([H])([H])C3([H])[H])(C([H])(C([H])([H])[H])C([H])([H])[H])C([H])([H])C2([H])[H])c([H])c2c1C(=O)c1c(n([H])c3c([H])c(C#N)c([H])c([H])c13)C2(C([H])([H])[H])C([H])([H])[H]


 38 43  0  0  0  0  0  0  0  0999 V2000
   59.7479   -2.7645  -16.8582 C   0  0  0  0  0  0  0  0  0  0  0  0
   58.4605   -3.2191  -16.7413 C   0  0  0  0  0  0  0  0  0  0  0  0
   57.3624   -2.3786  -16.9711 C   0  0  0  0  0  0  0  0  0  0  0  0
   57.6232   -1.0786  -17.3188 C   0  0  0  0  0  0  0  0  0  0  0  0
   58.9329   -0.6437  -17.4302 C   0  0  0  0  0  0  0  0  0  0  0  0
   59.9554   -1.4818  -17.2013 N   0  0  0  0  0  0  0  0  0  0  0  0
   56.5210   -0.1647  -17.5690 C   0  0  0  0  0  0  0  0  0  0  0  0
   56.7523    1.0395  -17.8910 O   0  0  0  0  0  0  0  0  0  0  0  0
   55.1600   -0.6503  -17.4450 C   0  0  0  0  0  0  0  0  0  0  0  0
   54.9502   -1.9612  -17.0942 C   0  0  0  0  0  0  0  0  0  0  0  0
   53.6067   -2.1840  -17.0403 N   0  0  0  0  0  0  0  0  0  0  0  0
   52.9493   -1.0425  -17.3494 C   0  0  0  0  0  0  0  0  0  0  0  0
   51.6032   -0.7350  -17.4375 C   0  0  0  0  0  0  0  0  0  0  0  0
   51.2199    0.5370  -17.7804 C   0  0  0  0  0  0  0  0  0  0  0  0
   52.2012    1.4743  -18.0278 C   0  0  0  0  0  0  0  0  0  0  0  0
   53.5414    1.1712  -17.9408 C   0  0  0  0  0  0  0  0  0  0  0  0
   53.9198   -0.0937  -17.5998 C   0  0  0  0  0  0  0  0  0  0  0  0
   56.0152   -2.9297  -16.8301 C   0  0  0  0  0  0  0  0  0  0  0  0
   55.8020   -4.1008  -17.7993 C   0  0  0  0  0  0  0  0  0  0  0  0
   55.7591   -3.5100  -15.4402 C   0  0  0  0  0  0  0  0  0  0  0  0
   53.1214   -3.0688  -16.8054 H   0  0  0  0  0  0  0  0  0  0  0  0
   63.2326   -5.2528  -15.7824 C   0  0  0  0  0  0  0  0  0  0  0  0
   63.1768   -3.7185  -15.9438 C   0  0  0  0  0  0  0  0  0  0  0  0
   62.2262   -3.2663  -17.0047 C   0  0  0  0  0  0  0  0  0  0  0  0
   60.8727   -3.6224  -16.6255 N   0  0  0  0  0  0  0  0  0  0  0  0
   60.7379   -4.9260  -15.9871 C   0  0  0  0  0  0  0  0  0  0  0  0
   61.9484   -5.7174  -16.4358 C   0  0  0  0  0  0  0  0  0  0  0  0
   63.2831   -5.4806  -14.4057 N   0  0  0  0  0  0  0  0  0  0  0  0
   63.9100   -6.5357  -13.7959 C   0  0  0  0  0  0  0  0  0  0  0  0
   63.0701   -7.1842  -12.7223 C   0  0  0  0  0  0  0  0  0  0  0  0
   62.3875   -6.2924  -11.9390 O   0  0  0  0  0  0  0  0  0  0  0  0
   61.6275   -5.3941  -12.6943 C   0  0  0  0  0  0  0  0  0  0  0  0
   62.6137   -4.6043  -13.5299 C   0  0  0  0  0  0  0  0  0  0  0  0
   64.2871   -5.7723  -18.0243 C   0  0  0  0  0  0  0  0  0  0  0  0
   64.4149   -5.8129  -16.5000 C   0  0  0  0  0  0  0  0  0  0  0  0
   65.7504   -5.2229  -16.2135 C   0  0  0  0  0  0  0  0  0  0  0  0
   49.8092    0.8964  -17.8829 C   0  0  0  0  0  0  0  0  0  0  0  0
   48.6941    1.1844  -17.9812 N   0  0  0  0  0  0  0  0  0  0  0  0
 34 35  1  0  0  0
 35 36  1  0  0  0
 35 22  1  0  0  0
 22 28  1  0  0  0
 28 29  1  0  0  0
 29 30  1  0  0  0
 30 31  1  0  0  0
 31 32  1  0  0  0
 32 33  1  0  0  0
 22 23  1  0  0  0
 23 24  1  0  0  0
 24 25  1  0  0  0
 25  1  1  0  0  0
  1  2  2  0  0  0
  2  3  1  0  0  0
  3  4  2  0  0  0
  4  5  1  0  0  0
  5  6  2  0  0  0
  4  7  1  0  0  0
  7  8  2  0  0  0
  7  9  1  0  0  0
  9 10  2  0  0  0
 10 11  1  0  0  0
 11 12  1  0  0  0
 12 13  2  0  0  0
 13 14  1  0  0  0
 14 37  1  0  0  0
 37 38  3  0  0  0
 14 15  2  0  0  0
 15 16  1  0  0  0
 16 17  2  0  0  0
 10 18  1  0  0  0
 18 19  1  0  0  0
 18 20  1  0  0  0
 25 26  1  0  0  0
 26 27  1  0  0  0
 27 22  1  0  0  0
 33 28  1  0  0  0
  6  1  1  0  0  0
 17  9  1  0  0  0
 18  3  1  0  0  0
 17 12  1  0  0  0
 11 21  1  0  0  0
M  END
> <minimizedAffinity>
4.35054

> <CNNscore>
0.4219416976

> <CNNaffinity>
5.6142358780

> <CNN_VS>
2.3688802719

> <CNNaffinity_variance>
0.5509250760

$$$$
[H]c1nc(N2C([H])([H])C([H])([H])C(N3C([H])([H])C([H])([H])OC([H])([H])C3([H])[H])(C([H])(C([H])([H])[H])C([H])([H])[H])C([H])([H])C2([H])[H])c([H])c2c1C(=O)c1c(n([H])c3c([H])c(C#N)c([H])c([H])c13)C2(C([H])([H])[H])C([H])([H])[H]


 38 43  0  0  0  0  0  0  0  0999 V2000
   53.9579   -4.9865   -5.5662 C   0  0  0  0  0  0  0  0  0  0  0  0
   55.0336   -5.7948   -5.3070 C   0  0  0  0  0  0  0  0  0  0  0  0
   56.1713   -5.7863   -6.1258 C   0  0  0  0  0  0  0  0  0  0  0  0
   56.1700   -4.9361   -7.2011 C   0  0  0  0  0  0  0  0  0  0  0  0
   55.0706   -4.1296   -7.4415 C   0  0  0  0  0  0  0  0  0  0  0  0
   54.0013   -4.1691   -6.6321 N   0  0  0  0  0  0  0  0  0  0  0  0
   57.3249   -4.8871   -8.0823 C   0  0  0  0  0  0  0  0  0  0  0  0
   57.3328   -4.1041   -9.0794 O   0  0  0  0  0  0  0  0  0  0  0  0
   58.4615   -5.7437   -7.8037 C   0  0  0  0  0  0  0  0  0  0  0  0
   58.4152   -6.5782   -6.7143 C   0  0  0  0  0  0  0  0  0  0  0  0
   59.5832   -7.2783   -6.6566 N   0  0  0  0  0  0  0  0  0  0  0  0
   60.3788   -6.9102   -7.6872 C   0  0  0  0  0  0  0  0  0  0  0  0
   61.6441   -7.3103   -8.0789 C   0  0  0  0  0  0  0  0  0  0  0  0
   62.2167   -6.7511   -9.1933 C   0  0  0  0  0  0  0  0  0  0  0  0
   61.5026   -5.7994   -9.8911 C   0  0  0  0  0  0  0  0  0  0  0  0
   60.2434   -5.3995   -9.5038 C   0  0  0  0  0  0  0  0  0  0  0  0
   59.6763   -5.9567   -8.3959 C   0  0  0  0  0  0  0  0  0  0  0  0
   57.2842   -6.6737   -5.7902 C   0  0  0  0  0  0  0  0  0  0  0  0
   57.8269   -6.3602   -4.3890 C   0  0  0  0  0  0  0  0  0  0  0  0
   56.8702   -8.1434   -5.7386 C   0  0  0  0  0  0  0  0  0  0  0  0
   59.8610   -7.9879   -5.9546 H   0  0  0  0  0  0  0  0  0  0  0  0
   50.4912   -5.3519   -2.8567 C   0  0  0  0  0  0  0  0  0  0  0  0
   50.8234   -6.2147   -4.0931 C   0  0  0  0  0  0  0  0  0  0  0  0
   51.4971   -5.4514   -5.1873 C   0  0  0  0  0  0  0  0  0  0  0  0
   52.7938   -4.9919   -4.7293 N   0  0  0  0  0  0  0  0  0  0  0  0
   52.8277   -4.5312   -3.3466 C   0  0  0  0  0  0  0  0  0  0  0  0
   51.3993   -4.1513   -3.0174 C   0  0  0  0  0  0  0  0  0  0  0  0
   50.7967   -6.1503   -1.7528 N   0  0  0  0  0  0  0  0  0  0  0  0
   51.8442   -5.9512   -0.8918 C   0  0  0  0  0  0  0  0  0  0  0  0
   52.6075   -7.2166   -0.5841 C   0  0  0  0  0  0  0  0  0  0  0  0
   51.8092   -8.3126   -0.3944 O   0  0  0  0  0  0  0  0  0  0  0  0
   50.9178   -8.5112   -1.4531 C   0  0  0  0  0  0  0  0  0  0  0  0
   50.0185   -7.2925   -1.4827 C   0  0  0  0  0  0  0  0  0  0  0  0
   48.2119   -5.6854   -3.9062 C   0  0  0  0  0  0  0  0  0  0  0  0
   49.0601   -4.9301   -2.8809 C   0  0  0  0  0  0  0  0  0  0  0  0
   48.2863   -5.0104   -1.6126 C   0  0  0  0  0  0  0  0  0  0  0  0
   63.5494   -7.1491   -9.6352 C   0  0  0  0  0  0  0  0  0  0  0  0
   64.5984   -7.4796   -9.9907 N   0  0  0  0  0  0  0  0  0  0  0  0
 34 35  1  0  0  0
 35 36  1  0  0  0
 35 22  1  0  0  0
 22 28  1  0  0  0
 28 29  1  0  0  0
 29 30  1  0  0  0
 30 31  1  0  0  0
 31 32  1  0  0  0
 32 33  1  0  0  0
 22 23  1  0  0  0
 23 24  1  0  0  0
 24 25  1  0  0  0
 25  1  1  0  0  0
  1  2  2  0  0  0
  2  3  1  0  0  0
  3  4  2  0  0  0
  4  5  1  0  0  0
  5  6  2  0  0  0
  4  7  1  0  0  0
  7  8  2  0  0  0
  7  9  1  0  0  0
  9 10  2  0  0  0
 10 11  1  0  0  0
 11 12  1  0  0  0
 12 13  2  0  0  0
 13 14  1  0  0  0
 14 37  1  0  0  0
 37 38  3  0  0  0
 14 15  2  0  0  0
 15 16  1  0  0  0
 16 17  2  0  0  0
 10 18  1  0  0  0
 18 19  1  0  0  0
 18 20  1  0  0  0
 25 26  1  0  0  0
 26 27  1  0  0  0
 27 22  1  0  0  0
 33 28  1  0  0  0
  6  1  1  0  0  0
 17  9  1  0  0  0
 18  3  1  0  0  0
 17 12  1  0  0  0
 11 21  1  0  0  0
M  END
> <minimizedAffinity>
19.61972

> <CNNscore>
0.4007389247

> <CNNaffinity>
6.7663598061

> <CNN_VS>
2.7115437984

> <CNNaffinity_variance>
1.9374983311

$$$$
[H]c1nc(N2C([H])([H])C([H])([H])C(N3C([H])([H])C([H])([H])OC([H])([H])C3([H])[H])(C([H])(C([H])([H])[H])C([H])([H])[H])C([H])([H])C2([H])[H])c([H])c2c1C(=O)c1c(n([H])c3c([H])c(C#N)c([H])c([H])c13)C2(C([H])([H])[H])C([H])([H])[H]


 38 43  0  0  0  0  0  0  0  0999 V2000
   57.9403   -5.5121   -9.1448 C   0  0  0  0  0  0  0  0  0  0  0  0
   57.1570   -5.8003   -8.0579 C   0  0  0  0  0  0  0  0  0  0  0  0
   55.8857   -5.2318   -7.8988 C   0  0  0  0  0  0  0  0  0  0  0  0
   55.4509   -4.3723   -8.8742 C   0  0  0  0  0  0  0  0  0  0  0  0
   56.2614   -4.0973   -9.9626 C   0  0  0  0  0  0  0  0  0  0  0  0
   57.4724   -4.6635  -10.0760 N   0  0  0  0  0  0  0  0  0  0  0  0
   54.1399   -3.7554   -8.7590 C   0  0  0  0  0  0  0  0  0  0  0  0
   53.7293   -2.9591   -9.6560 O   0  0  0  0  0  0  0  0  0  0  0  0
   53.3140   -4.0640   -7.6075 C   0  0  0  0  0  0  0  0  0  0  0  0
   53.7938   -4.9312   -6.6570 C   0  0  0  0  0  0  0  0  0  0  0  0
   52.8525   -5.0656   -5.6806 N   0  0  0  0  0  0  0  0  0  0  0  0
   51.7777   -4.3020   -5.9846 C   0  0  0  0  0  0  0  0  0  0  0  0
   50.5741   -4.0845   -5.3379 C   0  0  0  0  0  0  0  0  0  0  0  0
   49.6495   -3.2371   -5.8943 C   0  0  0  0  0  0  0  0  0  0  0  0
   49.9564   -2.6255   -7.0920 C   0  0  0  0  0  0  0  0  0  0  0  0
   51.1533   -2.8400   -7.7377 C   0  0  0  0  0  0  0  0  0  0  0  0
   52.0706   -3.6825   -7.1827 C   0  0  0  0  0  0  0  0  0  0  0  0
   55.1023   -5.5843   -6.7154 C   0  0  0  0  0  0  0  0  0  0  0  0
   54.8471   -7.0971   -6.6623 C   0  0  0  0  0  0  0  0  0  0  0  0
   55.8262   -5.2554   -5.4108 C   0  0  0  0  0  0  0  0  0  0  0  0
   52.9075   -5.6476   -4.8252 H   0  0  0  0  0  0  0  0  0  0  0  0
   62.0848   -7.0031   -9.4483 C   0  0  0  0  0  0  0  0  0  0  0  0
   61.4941   -5.7133  -10.0574 C   0  0  0  0  0  0  0  0  0  0  0  0
   60.0667   -5.8536  -10.4777 C   0  0  0  0  0  0  0  0  0  0  0  0
   59.2401   -6.0936   -9.3108 N   0  0  0  0  0  0  0  0  0  0  0  0
   59.8306   -6.9766   -8.3123 C   0  0  0  0  0  0  0  0  0  0  0  0
   60.8560   -7.7994   -9.0636 C   0  0  0  0  0  0  0  0  0  0  0  0
   62.8521   -6.5832   -8.3601 N   0  0  0  0  0  0  0  0  0  0  0  0
   63.5064   -5.3829   -8.2632 C   0  0  0  0  0  0  0  0  0  0  0  0
   64.9208   -5.5181   -7.7535 C   0  0  0  0  0  0  0  0  0  0  0  0
   65.0570   -6.4174   -6.7301 O   0  0  0  0  0  0  0  0  0  0  0  0
   64.5174   -7.6681   -7.0456 C   0  0  0  0  0  0  0  0  0  0  0  0
   63.0346   -7.4461   -7.2623 C   0  0  0  0  0  0  0  0  0  0  0  0
   62.3442   -9.1367  -10.7858 C   0  0  0  0  0  0  0  0  0  0  0  0
   62.8882   -7.7429  -10.4651 C   0  0  0  0  0  0  0  0  0  0  0  0
   63.0990   -7.1015  -11.7910 C   0  0  0  0  0  0  0  0  0  0  0  0
   48.3698   -2.9846   -5.2399 C   0  0  0  0  0  0  0  0  0  0  0  0
   47.3645   -2.7757   -4.7090 N   0  0  0  0  0  0  0  0  0  0  0  0
 34 35  1  0  0  0
 35 36  1  0  0  0
 35 22  1  0  0  0
 22 28  1  0  0  0
 28 29  1  0  0  0
 29 30  1  0  0  0
 30 31  1  0  0  0
 31 32  1  0  0  0
 32 33  1  0  0  0
 22 23  1  0  0  0
 23 24  1  0  0  0
 24 25  1  0  0  0
 25  1  1  0  0  0
  1  2  2  0  0  0
  2  3  1  0  0  0
  3  4  2  0  0  0
  4  5  1  0  0  0
  5  6  2  0  0  0
  4  7  1  0  0  0
  7  8  2  0  0  0
  7  9  1  0  0  0
  9 10  2  0  0  0
 10 11  1  0  0  0
 11 12  1  0  0  0
 12 13  2  0  0  0
 13 14  1  0  0  0
 14 37  1  0  0  0
 37 38  3  0  0  0
 14 15  2  0  0  0
 15 16  1  0  0  0
 16 17  2  0  0  0
 10 18  1  0  0  0
 18 19  1  0  0  0
 18 20  1  0  0  0
 25 26  1  0  0  0
 26 27  1  0  0  0
 27 22  1  0  0  0
 33 28  1  0  0  0
  6  1  1  0  0  0
 17  9  1  0  0  0
 18  3  1  0  0  0
 17 12  1  0  0  0
 11 21  1  0  0  0
M  END
> <minimizedAffinity>
-7.10407

> <CNNscore>
0.3984436989

> <CNNaffinity>
7.0703177452

> <CNN_VS>
2.8171236515

> <CNNaffinity_variance>
0.7257267237

$$$$
[H]c1nc(N2C([H])([H])C([H])([H])C(N3C([H])([H])C([H])([H])OC([H])([H])C3([H])[H])(C([H])(C([H])([H])[H])C([H])([H])[H])C([H])([H])C2([H])[H])c([H])c2c1C(=O)c1c(n([H])c3c([H])c(C#N)c([H])c([H])c13)C2(C([H])([H])[H])C([H])([H])[H]


 38 43  0  0  0  0  0  0  0  0999 V2000
   55.7188   -4.7279   -9.3180 C   0  0  0  0  0  0  0  0  0  0  0  0
   56.9718   -5.2776   -9.2426 C   0  0  0  0  0  0  0  0  0  0  0  0
   57.9274   -5.0650  -10.2459 C   0  0  0  0  0  0  0  0  0  0  0  0
   57.5624   -4.2834  -11.3112 C   0  0  0  0  0  0  0  0  0  0  0  0
   56.2903   -3.7395  -11.3639 C   0  0  0  0  0  0  0  0  0  0  0  0
   55.4056   -3.9683  -10.3815 N   0  0  0  0  0  0  0  0  0  0  0  0
   58.5153   -4.0304  -12.3792 C   0  0  0  0  0  0  0  0  0  0  0  0
   58.1868   -3.3088  -13.3685 O   0  0  0  0  0  0  0  0  0  0  0  0
   59.8405   -4.6135  -12.2948 C   0  0  0  0  0  0  0  0  0  0  0  0
   60.1586   -5.3893  -11.2075 C   0  0  0  0  0  0  0  0  0  0  0  0
   61.4432   -5.8228  -11.3473 N   0  0  0  0  0  0  0  0  0  0  0  0
   61.9565   -5.3411  -12.5027 C   0  0  0  0  0  0  0  0  0  0  0  0
   63.1947   -5.4813  -13.1043 C   0  0  0  0  0  0  0  0  0  0  0  0
   63.4382   -4.8639  -14.3052 C   0  0  0  0  0  0  0  0  0  0  0  0
   62.4287   -4.1172  -14.8762 C   0  0  0  0  0  0  0  0  0  0  0  0
   61.1958   -3.9761  -14.2800 C   0  0  0  0  0  0  0  0  0  0  0  0
   60.9561   -4.5907  -13.0865 C   0  0  0  0  0  0  0  0  0  0  0  0
   59.2459   -5.6807  -10.1011 C   0  0  0  0  0  0  0  0  0  0  0  0
   59.9344   -5.1970   -8.8172 C   0  0  0  0  0  0  0  0  0  0  0  0
   59.1742   -7.2009   -9.9674 C   0  0  0  0  0  0  0  0  0  0  0  0
   61.9813   -6.4254  -10.6986 H   0  0  0  0  0  0  0  0  0  0  0  0
   52.9410   -5.6658   -6.0171 C   0  0  0  0  0  0  0  0  0  0  0  0
   53.3438   -6.5686   -7.2029 C   0  0  0  0  0  0  0  0  0  0  0  0
   53.5940   -5.8127   -8.4677 C   0  0  0  0  0  0  0  0  0  0  0  0
   54.7402   -4.9422   -8.2925 N   0  0  0  0  0  0  0  0  0  0  0  0
   54.8251   -4.2953   -6.9888 C   0  0  0  0  0  0  0  0  0  0  0  0
   53.4095   -4.2932   -6.4513 C   0  0  0  0  0  0  0  0  0  0  0  0
   53.6256   -6.1754   -4.9121 N   0  0  0  0  0  0  0  0  0  0  0  0
   54.7431   -6.9670   -4.9637 C   0  0  0  0  0  0  0  0  0  0  0  0
   54.6720   -8.1544   -4.0345 C   0  0  0  0  0  0  0  0  0  0  0  0
   54.1350   -7.8667   -2.8083 O   0  0  0  0  0  0  0  0  0  0  0  0
   52.8922   -7.2338   -2.9071 C   0  0  0  0  0  0  0  0  0  0  0  0
   53.1431   -5.9179   -3.6144 C   0  0  0  0  0  0  0  0  0  0  0  0
   50.8020   -4.3123   -6.0469 C   0  0  0  0  0  0  0  0  0  0  0  0
   51.4607   -5.6762   -5.8293 C   0  0  0  0  0  0  0  0  0  0  0  0
   50.6586   -6.6224   -6.6509 C   0  0  0  0  0  0  0  0  0  0  0  0
   64.7323   -4.9900  -14.9677 C   0  0  0  0  0  0  0  0  0  0  0  0
   65.7534   -5.1065  -15.4967 N   0  0  0  0  0  0  0  0  0  0  0  0
 34 35  1  0  0  0
 35 36  1  0  0  0
 35 22  1  0  0  0
 22 28  1  0  0  0
 28 29  1  0  0  0
 29 30  1  0  0  0
 30 31  1  0  0  0
 31 32  1  0  0  0
 32 33  1  0  0  0
 22 23  1  0  0  0
 23 24  1  0  0  0
 24 25  1  0  0  0
 25  1  1  0  0  0
  1  2  2  0  0  0
  2  3  1  0  0  0
  3  4  2  0  0  0
  4  5  1  0  0  0
  5  6  2  0  0  0
  4  7  1  0  0  0
  7  8  2  0  0  0
  7  9  1  0  0  0
  9 10  2  0  0  0
 10 11  1  0  0  0
 11 12  1  0  0  0
 12 13  2  0  0  0
 13 14  1  0  0  0
 14 37  1  0  0  0
 37 38  3  0  0  0
 14 15  2  0  0  0
 15 16  1  0  0  0
 16 17  2  0  0  0
 10 18  1  0  0  0
 18 19  1  0  0  0
 18 20  1  0  0  0
 25 26  1  0  0  0
 26 27  1  0  0  0
 27 22  1  0  0  0
 33 28  1  0  0  0
  6  1  1  0  0  0
 17  9  1  0  0  0
 18  3  1  0  0  0
 17 12  1  0  0  0
 11 21  1  0  0  0
M  END
> <minimizedAffinity>
-2.52036

> <CNNscore>
0.3922557831

> <CNNaffinity>
6.8616080284

> <CNN_VS>
2.6915054321

> <CNNaffinity_variance>
0.5839730501

$$$$
[H]c1nc(N2C([H])([H])C([H])([H])C(N3C([H])([H])C([H])([H])OC([H])([H])C3([H])[H])(C([H])(C([H])([H])[H])C([H])([H])[H])C([H])([H])C2([H])[H])c([H])c2c1C(=O)c1c(n([H])c3c([H])c(C#N)c([H])c([H])c13)C2(C([H])([H])[H])C([H])([H])[H]


 38 43  0  0  0  0  0  0  0  0999 V2000
   60.0673   -6.0333   -9.1973 C   0  0  0  0  0  0  0  0  0  0  0  0
   59.0739   -5.4024   -9.8995 C   0  0  0  0  0  0  0  0  0  0  0  0
   57.8185   -5.1512   -9.3287 C   0  0  0  0  0  0  0  0  0  0  0  0
   57.6183   -5.5612   -8.0361 C   0  0  0  0  0  0  0  0  0  0  0  0
   58.6380   -6.1966   -7.3481 C   0  0  0  0  0  0  0  0  0  0  0  0
   59.8254   -6.4176   -7.9325 N   0  0  0  0  0  0  0  0  0  0  0  0
   56.3350   -5.3250   -7.3958 C   0  0  0  0  0  0  0  0  0  0  0  0
   56.1404   -5.7007   -6.2007 O   0  0  0  0  0  0  0  0  0  0  0  0
   55.2868   -4.6562   -8.1424 C   0  0  0  0  0  0  0  0  0  0  0  0
   55.5359   -4.2644   -9.4347 C   0  0  0  0  0  0  0  0  0  0  0  0
   54.4158   -3.6642   -9.9275 N   0  0  0  0  0  0  0  0  0  0  0  0
   53.4522   -3.6628   -8.9777 C   0  0  0  0  0  0  0  0  0  0  0  0
   52.1534   -3.1858   -8.9662 C   0  0  0  0  0  0  0  0  0  0  0  0
   51.3900   -3.3266   -7.8349 C   0  0  0  0  0  0  0  0  0  0  0  0
   51.9508   -3.9457   -6.7372 C   0  0  0  0  0  0  0  0  0  0  0  0
   53.2428   -4.4214   -6.7458 C   0  0  0  0  0  0  0  0  0  0  0  0
   53.9995   -4.2803   -7.8714 C   0  0  0  0  0  0  0  0  0  0  0  0
   56.8045   -4.4722  -10.1344 C   0  0  0  0  0  0  0  0  0  0  0  0
   57.2992   -3.0888  -10.5790 C   0  0  0  0  0  0  0  0  0  0  0  0
   56.4855   -5.2174  -11.4294 C   0  0  0  0  0  0  0  0  0  0  0  0
   54.2786   -3.2594  -10.8713 H   0  0  0  0  0  0  0  0  0  0  0  0
   64.0176   -7.1713  -10.8076 C   0  0  0  0  0  0  0  0  0  0  0  0
   63.6319   -6.9154   -9.3348 C   0  0  0  0  0  0  0  0  0  0  0  0
   62.5936   -5.8535   -9.1678 C   0  0  0  0  0  0  0  0  0  0  0  0
   61.3528   -6.2898   -9.7781 N   0  0  0  0  0  0  0  0  0  0  0  0
   61.5085   -7.0121  -11.0347 C   0  0  0  0  0  0  0  0  0  0  0  0
   62.8550   -6.5824  -11.5780 C   0  0  0  0  0  0  0  0  0  0  0  0
   64.1326   -8.5577  -10.9266 N   0  0  0  0  0  0  0  0  0  0  0  0
   64.3703   -9.2397  -12.0912 C   0  0  0  0  0  0  0  0  0  0  0  0
   63.4735  -10.4409  -12.2686 C   0  0  0  0  0  0  0  0  0  0  0  0
   63.2800  -11.1618  -11.1208 O   0  0  0  0  0  0  0  0  0  0  0  0
   62.8434  -10.3641  -10.0587 C   0  0  0  0  0  0  0  0  0  0  0  0
   63.9558   -9.3712   -9.7908 C   0  0  0  0  0  0  0  0  0  0  0  0
   65.2697   -5.8066  -12.5332 C   0  0  0  0  0  0  0  0  0  0  0  0
   65.2836   -6.4595  -11.1494 C   0  0  0  0  0  0  0  0  0  0  0  0
   65.7549   -5.3903  -10.2282 C   0  0  0  0  0  0  0  0  0  0  0  0
   50.0167   -2.8353   -7.7873 C   0  0  0  0  0  0  0  0  0  0  0  0
   48.9276   -2.4518   -7.7331 N   0  0  0  0  0  0  0  0  0  0  0  0
 34 35  1  0  0  0
 35 36  1  0  0  0
 35 22  1  0  0  0
 22 28  1  0  0  0
 28 29  1  0  0  0
 29 30  1  0  0  0
 30 31  1  0  0  0
 31 32  1  0  0  0
 32 33  1  0  0  0
 22 23  1  0  0  0
 23 24  1  0  0  0
 24 25  1  0  0  0
 25  1  1  0  0  0
  1  2  2  0  0  0
  2  3  1  0  0  0
  3  4  2  0  0  0
  4  5  1  0  0  0
  5  6  2  0  0  0
  4  7  1  0  0  0
  7  8  2  0  0  0
  7  9  1  0  0  0
  9 10  2  0  0  0
 10 11  1  0  0  0
 11 12  1  0  0  0
 12 13  2  0  0  0
 13 14  1  0  0  0
 14 37  1  0  0  0
 37 38  3  0  0  0
 14 15  2  0  0  0
 15 16  1  0  0  0
 16 17  2  0  0  0
 10 18  1  0  0  0
 18 19  1  0  0  0
 18 20  1  0  0  0
 25 26  1  0  0  0
 26 27  1  0  0  0
 27 22  1  0  0  0
 33 28  1  0  0  0
  6  1  1  0  0  0
 17  9  1  0  0  0
 18  3  1  0  0  0
 17 12  1  0  0  0
 11 21  1  0  0  0
M  END
> <minimizedAffinity>
-3.12823

> <CNNscore>
0.3851882815

> <CNNaffinity>
6.3075666428

> <CNN_VS>
2.4296007156

> <CNNaffinity_variance>
0.2467724830

$$$$
[H]c1nc(N2C([H])([H])C([H])([H])C(N3C([H])([H])C([H])([H])OC([H])([H])C3([H])[H])(C([H])(C([H])([H])[H])C([H])([H])[H])C([H])([H])C2([H])[H])c([H])c2c1C(=O)c1c(n([H])c3c([H])c(C#N)c([H])c([H])c13)C2(C([H])([H])[H])C([H])([H])[H]


 38 43  0  0  0  0  0  0  0  0999 V2000
   58.2297   -5.7058   -9.0271 C   0  0  0  0  0  0  0  0  0  0  0  0
   57.4200   -5.9358   -7.9457 C   0  0  0  0  0  0  0  0  0  0  0  0
   56.1446   -5.3621   -7.8495 C   0  0  0  0  0  0  0  0  0  0  0  0
   55.7335   -4.5584   -8.8810 C   0  0  0  0  0  0  0  0  0  0  0  0
   56.5703   -4.3418   -9.9625 C   0  0  0  0  0  0  0  0  0  0  0  0
   57.7843   -4.9106  -10.0147 N   0  0  0  0  0  0  0  0  0  0  0  0
   54.4195   -3.9390   -8.8321 C   0  0  0  0  0  0  0  0  0  0  0  0
   54.0305   -3.1940   -9.7814 O   0  0  0  0  0  0  0  0  0  0  0  0
   53.5656   -4.1857   -7.6861 C   0  0  0  0  0  0  0  0  0  0  0  0
   54.0225   -4.9984   -6.6780 C   0  0  0  0  0  0  0  0  0  0  0  0
   53.0574   -5.0811   -5.7191 N   0  0  0  0  0  0  0  0  0  0  0  0
   51.9899   -4.3377   -6.0911 C   0  0  0  0  0  0  0  0  0  0  0  0
   50.7704   -4.0877   -5.4871 C   0  0  0  0  0  0  0  0  0  0  0  0
   49.8591   -3.2741   -6.1118 C   0  0  0  0  0  0  0  0  0  0  0  0
   50.1951   -2.7285   -7.3333 C   0  0  0  0  0  0  0  0  0  0  0  0
   51.4078   -2.9754   -7.9366 C   0  0  0  0  0  0  0  0  0  0  0  0
   52.3118   -3.7842   -7.3137 C   0  0  0  0  0  0  0  0  0  0  0  0
   55.3325   -5.6509   -6.6681 C   0  0  0  0  0  0  0  0  0  0  0  0
   55.0774   -7.1590   -6.5384 C   0  0  0  0  0  0  0  0  0  0  0  0
   56.0236   -5.2494   -5.3662 C   0  0  0  0  0  0  0  0  0  0  0  0
   53.0917   -5.6152   -4.8320 H   0  0  0  0  0  0  0  0  0  0  0  0
   62.2886   -7.3173   -9.6763 C   0  0  0  0  0  0  0  0  0  0  0  0
   61.0196   -7.5772  -10.5163 C   0  0  0  0  0  0  0  0  0  0  0  0
   59.7645   -7.6031   -9.7052 C   0  0  0  0  0  0  0  0  0  0  0  0
   59.5337   -6.2928   -9.1289 N   0  0  0  0  0  0  0  0  0  0  0  0
   60.7326   -5.6114   -8.6558 C   0  0  0  0  0  0  0  0  0  0  0  0
   61.7424   -6.7107   -8.4013 C   0  0  0  0  0  0  0  0  0  0  0  0
   63.0638   -6.4386  -10.4356 N   0  0  0  0  0  0  0  0  0  0  0  0
   62.7780   -6.0223  -11.7096 C   0  0  0  0  0  0  0  0  0  0  0  0
   63.9725   -6.0707  -12.6311 C   0  0  0  0  0  0  0  0  0  0  0  0
   65.1364   -5.6406  -12.0522 O   0  0  0  0  0  0  0  0  0  0  0  0
   65.4064   -6.2984  -10.8483 C   0  0  0  0  0  0  0  0  0  0  0  0
   64.2723   -5.9433   -9.9090 C   0  0  0  0  0  0  0  0  0  0  0  0
   62.6524   -9.1925   -8.0153 C   0  0  0  0  0  0  0  0  0  0  0  0
   62.9949   -8.5985   -9.3832 C   0  0  0  0  0  0  0  0  0  0  0  0
   62.8263   -9.7246  -10.3409 C   0  0  0  0  0  0  0  0  0  0  0  0
   48.5634   -2.9889   -5.5040 C   0  0  0  0  0  0  0  0  0  0  0  0
   47.5453   -2.7559   -5.0088 N   0  0  0  0  0  0  0  0  0  0  0  0
 34 35  1  0  0  0
 35 36  1  0  0  0
 35 22  1  0  0  0
 22 28  1  0  0  0
 28 29  1  0  0  0
 29 30  1  0  0  0
 30 31  1  0  0  0
 31 32  1  0  0  0
 32 33  1  0  0  0
 22 23  1  0  0  0
 23 24  1  0  0  0
 24 25  1  0  0  0
 25  1  1  0  0  0
  1  2  2  0  0  0
  2  3  1  0  0  0
  3  4  2  0  0  0
  4  5  1  0  0  0
  5  6  2  0  0  0
  4  7  1  0  0  0
  7  8  2  0  0  0
  7  9  1  0  0  0
  9 10  2  0  0  0
 10 11  1  0  0  0
 11 12  1  0  0  0
 12 13  2  0  0  0
 13 14  1  0  0  0
 14 37  1  0  0  0
 37 38  3  0  0  0
 14 15  2  0  0  0
 15 16  1  0  0  0
 16 17  2  0  0  0
 10 18  1  0  0  0
 18 19  1  0  0  0
 18 20  1  0  0  0
 25 26  1  0  0  0
 26 27  1  0  0  0
 27 22  1  0  0  0
 33 28  1  0  0  0
  6  1  1  0  0  0
 17  9  1  0  0  0
 18  3  1  0  0  0
 17 12  1  0  0  0
 11 21  1  0  0  0
M  END
> <minimizedAffinity>
-6.49543

> <CNNscore>
0.3809354603

> <CNNaffinity>
6.8954300880

> <CNN_VS>
2.6267137527

> <CNNaffinity_variance>
0.4892507195

$$$$
[H]OC(=O)c1c([H])c([H])nc([H])c1N([H])C([H])([H])C1([H])c2c([H])c([H])c(Sc3sc([H])c([H])c3[H])c([H])c2OC([H])([H])C1([H])[H]


 29 32  0  0  0  0  0  0  0  0999 V2000
   52.8596   -6.5904   -3.7505 C   0  0  0  0  0  0  0  0  0  0  0  0
   53.5019   -6.7237   -2.3789 C   0  0  0  0  0  0  0  0  0  0  0  0
   54.1205   -5.4220   -1.9721 C   0  0  0  0  0  0  0  0  0  0  0  0
   54.9482   -4.9148   -2.9751 O   0  0  0  0  0  0  0  0  0  0  0  0
   54.9523   -5.4098   -4.2792 C   0  0  0  0  0  0  0  0  0  0  0  0
   55.9862   -5.0625   -5.1581 C   0  0  0  0  0  0  0  0  0  0  0  0
   56.0153   -5.5381   -6.4549 C   0  0  0  0  0  0  0  0  0  0  0  0
   54.9867   -6.3681   -6.8504 C   0  0  0  0  0  0  0  0  0  0  0  0
   53.9508   -6.7191   -5.9775 C   0  0  0  0  0  0  0  0  0  0  0  0
   53.9500   -6.2335   -4.7036 C   0  0  0  0  0  0  0  0  0  0  0  0
   51.8315   -5.4957   -3.6637 C   0  0  0  0  0  0  0  0  0  0  0  0
   50.8876   -5.5060   -4.7786 N   0  0  0  0  0  0  0  0  0  0  0  0
   50.3185   -6.3575   -4.9310 H   0  0  0  0  0  0  0  0  0  0  0  0
   49.7491   -3.4667   -5.5562 C   0  0  0  0  0  0  0  0  0  0  0  0
   49.6895   -2.4632   -6.5499 C   0  0  0  0  0  0  0  0  0  0  0  0
   50.5740   -2.4123   -7.5860 C   0  0  0  0  0  0  0  0  0  0  0  0
   51.5271   -3.3374   -7.6681 N   0  0  0  0  0  0  0  0  0  0  0  0
   51.6295   -4.3103   -6.7559 C   0  0  0  0  0  0  0  0  0  0  0  0
   50.7452   -4.4069   -5.6718 C   0  0  0  0  0  0  0  0  0  0  0  0
   48.7348   -4.2208   -3.5327 O   0  0  0  0  0  0  0  0  0  0  0  0
   48.8062   -3.4367   -4.4739 C   0  0  0  0  0  0  0  0  0  0  0  0
   47.8435   -2.4049   -4.4634 O   0  0  0  0  0  0  0  0  0  0  0  0
   46.8648   -2.5883   -4.6081 H   0  0  0  0  0  0  0  0  0  0  0  0
   57.3572   -5.0523   -7.5036 S   0  0  0  0  0  0  0  0  0  0  0  0
   56.7713   -4.6459   -9.1623 C   0  0  0  0  0  0  0  0  0  0  0  0
   55.5353   -4.1600   -9.5095 C   0  0  0  0  0  0  0  0  0  0  0  0
   55.3179   -3.9276  -10.8180 C   0  0  0  0  0  0  0  0  0  0  0  0
   56.3476   -4.1965  -11.6825 C   0  0  0  0  0  0  0  0  0  0  0  0
   57.5780   -4.7607  -10.6530 S   0  0  0  0  0  0  0  0  0  0  0  0
 20 21  2  0  0  0
 21 22  1  0  0  0
 21 14  1  0  0  0
 14 15  2  0  0  0
 15 16  1  0  0  0
 16 17  2  0  0  0
 17 18  1  0  0  0
 18 19  2  0  0  0
 19 12  1  0  0  0
 12 11  1  0  0  0
 11  1  1  0  0  0
  1  2  1  0  0  0
  2  3  1  0  0  0
  3  4  1  0  0  0
  4  5  1  0  0  0
  5  6  2  0  0  0
  6  7  1  0  0  0
  7 24  1  0  0  0
 24 25  1  0  0  0
 25 26  2  0  0  0
 26 27  1  0  0  0
 27 28  2  0  0  0
 28 29  1  0  0  0
  7  8  2  0  0  0
  8  9  1  0  0  0
  9 10  2  0  0  0
 19 14  1  0  0  0
 10  1  1  0  0  0
 10  5  1  0  0  0
 29 25  1  0  0  0
 22 23  1  0  0  0
 12 13  1  0  0  0
M  END
> <minimizedAffinity>
-8.85511

> <CNNscore>
0.7721642256

> <CNNaffinity>
7.4077482224

> <CNN_VS>
5.7199983597

> <CNNaffinity_variance>
0.0408074148

$$$$
[H]OC(=O)c1c([H])c([H])nc([H])c1N([H])C([H])([H])C1([H])c2c([H])c([H])c(Sc3sc([H])c([H])c3[H])c([H])c2OC([H])([H])C1([H])[H]


 29 32  0  0  0  0  0  0  0  0999 V2000
   55.6360   -3.4494   -9.3102 C   0  0  0  0  0  0  0  0  0  0  0  0
   56.5710   -3.9967   -8.2433 C   0  0  0  0  0  0  0  0  0  0  0  0
   56.2004   -5.4088   -7.9101 C   0  0  0  0  0  0  0  0  0  0  0  0
   54.8379   -5.5265   -7.6308 O   0  0  0  0  0  0  0  0  0  0  0  0
   53.9140   -4.5216   -7.9181 C   0  0  0  0  0  0  0  0  0  0  0  0
   52.6270   -4.5739   -7.3678 C   0  0  0  0  0  0  0  0  0  0  0  0
   51.6920   -3.5925   -7.6355 C   0  0  0  0  0  0  0  0  0  0  0  0
   52.0753   -2.5594   -8.4656 C   0  0  0  0  0  0  0  0  0  0  0  0
   53.3594   -2.5011   -9.0187 C   0  0  0  0  0  0  0  0  0  0  0  0
   54.2599   -3.4849   -8.7357 C   0  0  0  0  0  0  0  0  0  0  0  0
   55.7480   -4.3464  -10.5126 C   0  0  0  0  0  0  0  0  0  0  0  0
   57.0069   -4.1819  -11.2351 N   0  0  0  0  0  0  0  0  0  0  0  0
   57.8904   -4.2286  -10.6971 H   0  0  0  0  0  0  0  0  0  0  0  0
   58.2336   -3.8876  -13.3489 C   0  0  0  0  0  0  0  0  0  0  0  0
   58.1427   -3.5694  -14.7232 C   0  0  0  0  0  0  0  0  0  0  0  0
   56.9503   -3.3167  -15.3337 C   0  0  0  0  0  0  0  0  0  0  0  0
   55.8319   -3.3701  -14.6146 N   0  0  0  0  0  0  0  0  0  0  0  0
   55.8595   -3.6654  -13.3103 C   0  0  0  0  0  0  0  0  0  0  0  0
   57.0594   -3.9333  -12.6357 C   0  0  0  0  0  0  0  0  0  0  0  0
   59.7488   -4.7269  -11.7084 O   0  0  0  0  0  0  0  0  0  0  0  0
   59.5201   -4.1773  -12.7813 C   0  0  0  0  0  0  0  0  0  0  0  0
   60.6663   -3.8006  -13.5134 O   0  0  0  0  0  0  0  0  0  0  0  0
   61.2831   -3.0706  -13.1985 H   0  0  0  0  0  0  0  0  0  0  0  0
   50.0867   -3.7314   -6.9007 S   0  0  0  0  0  0  0  0  0  0  0  0
   50.1856   -4.4780   -5.2598 C   0  0  0  0  0  0  0  0  0  0  0  0
   49.4627   -4.1307   -4.1457 C   0  0  0  0  0  0  0  0  0  0  0  0
   49.7042   -4.8304   -3.0207 C   0  0  0  0  0  0  0  0  0  0  0  0
   50.6474   -5.8232   -3.0895 C   0  0  0  0  0  0  0  0  0  0  0  0
   51.1649   -5.7517   -4.7079 S   0  0  0  0  0  0  0  0  0  0  0  0
 20 21  2  0  0  0
 21 22  1  0  0  0
 21 14  1  0  0  0
 14 15  2  0  0  0
 15 16  1  0  0  0
 16 17  2  0  0  0
 17 18  1  0  0  0
 18 19  2  0  0  0
 19 12  1  0  0  0
 12 11  1  0  0  0
 11  1  1  0  0  0
  1  2  1  0  0  0
  2  3  1  0  0  0
  3  4  1  0  0  0
  4  5  1  0  0  0
  5  6  2  0  0  0
  6  7  1  0  0  0
  7 24  1  0  0  0
 24 25  1  0  0  0
 25 26  2  0  0  0
 26 27  1  0  0  0
 27 28  2  0  0  0
 28 29  1  0  0  0
  7  8  2  0  0  0
  8  9  1  0  0  0
  9 10  2  0  0  0
 19 14  1  0  0  0
 10  1  1  0  0  0
 10  5  1  0  0  0
 29 25  1  0  0  0
 22 23  1  0  0  0
 12 13  1  0  0  0
M  END
> <minimizedAffinity>
-7.79390

> <CNNscore>
0.4552435577

> <CNNaffinity>
6.5236654282

> <CNN_VS>
2.9698567390

> <CNNaffinity_variance>
0.0402792245

$$$$
[H]OC(=O)c1c([H])c([H])nc([H])c1N([H])C([H])([H])C1([H])c2c([H])c([H])c(Sc3sc([H])c([H])c3[H])c([H])c2OC([H])([H])C1([H])[H]


 29 32  0  0  0  0  0  0  0  0999 V2000
   53.1978   -4.1156   -7.4675 C   0  0  0  0  0  0  0  0  0  0  0  0
   52.5046   -2.8325   -7.8978 C   0  0  0  0  0  0  0  0  0  0  0  0
   52.0896   -2.9288   -9.3334 C   0  0  0  0  0  0  0  0  0  0  0  0
   53.1488   -3.3390  -10.1445 O   0  0  0  0  0  0  0  0  0  0  0  0
   54.3347   -3.8683   -9.6352 C   0  0  0  0  0  0  0  0  0  0  0  0
   55.4576   -3.9972  -10.4626 C   0  0  0  0  0  0  0  0  0  0  0  0
   56.6447   -4.5182   -9.9847 C   0  0  0  0  0  0  0  0  0  0  0  0
   56.6810   -4.9063   -8.6614 C   0  0  0  0  0  0  0  0  0  0  0  0
   55.5629   -4.7802   -7.8293 C   0  0  0  0  0  0  0  0  0  0  0  0
   54.4055   -4.2624   -8.3304 C   0  0  0  0  0  0  0  0  0  0  0  0
   52.2307   -5.2469   -7.6863 C   0  0  0  0  0  0  0  0  0  0  0  0
   50.9349   -5.0245   -7.0496 N   0  0  0  0  0  0  0  0  0  0  0  0
   50.1353   -4.7515   -7.6482 H   0  0  0  0  0  0  0  0  0  0  0  0
   49.9934   -4.2517   -4.9105 C   0  0  0  0  0  0  0  0  0  0  0  0
   49.9373   -4.4537   -3.5126 C   0  0  0  0  0  0  0  0  0  0  0  0
   50.5897   -5.4819   -2.8997 C   0  0  0  0  0  0  0  0  0  0  0  0
   51.3050   -6.3257   -3.6393 N   0  0  0  0  0  0  0  0  0  0  0  0
   51.3936   -6.1813   -4.9661 C   0  0  0  0  0  0  0  0  0  0  0  0
   50.7419   -5.1411   -5.6442 C   0  0  0  0  0  0  0  0  0  0  0  0
   49.2386   -2.8286   -6.6703 O   0  0  0  0  0  0  0  0  0  0  0  0
   49.2514   -3.1685   -5.4914 C   0  0  0  0  0  0  0  0  0  0  0  0
   48.4388   -2.3909   -4.6389 O   0  0  0  0  0  0  0  0  0  0  0  0
   48.6526   -1.4301   -4.4300 H   0  0  0  0  0  0  0  0  0  0  0  0
   58.0184   -4.6480  -11.0948 S   0  0  0  0  0  0  0  0  0  0  0  0
   57.5162   -4.2992  -12.7937 C   0  0  0  0  0  0  0  0  0  0  0  0
   56.3629   -4.7052  -13.4175 C   0  0  0  0  0  0  0  0  0  0  0  0
   56.1973   -4.3248  -14.6987 C   0  0  0  0  0  0  0  0  0  0  0  0
   57.1926   -3.5688  -15.2624 C   0  0  0  0  0  0  0  0  0  0  0  0
   58.3203   -3.4124  -13.9991 S   0  0  0  0  0  0  0  0  0  0  0  0
 20 21  2  0  0  0
 21 22  1  0  0  0
 21 14  1  0  0  0
 14 15  2  0  0  0
 15 16  1  0  0  0
 16 17  2  0  0  0
 17 18  1  0  0  0
 18 19  2  0  0  0
 19 12  1  0  0  0
 12 11  1  0  0  0
 11  1  1  0  0  0
  1  2  1  0  0  0
  2  3  1  0  0  0
  3  4  1  0  0  0
  4  5  1  0  0  0
  5  6  2  0  0  0
  6  7  1  0  0  0
  7 24  1  0  0  0
 24 25  1  0  0  0
 25 26  2  0  0  0
 26 27  1  0  0  0
 27 28  2  0  0  0
 28 29  1  0  0  0
  7  8  2  0  0  0
  8  9  1  0  0  0
  9 10  2  0  0  0
 19 14  1  0  0  0
 10  1  1  0  0  0
 10  5  1  0  0  0
 29 25  1  0  0  0
 22 23  1  0  0  0
 12 13  1  0  0  0
M  END
> <minimizedAffinity>
-8.76163

> <CNNscore>
0.4015695453

> <CNNaffinity>
6.6989693642

> <CNN_VS>
2.6901021004

> <CNNaffinity_variance>
0.0198594220

$$$$
[H]OC(=O)c1c([H])c([H])nc([H])c1N([H])C([H])([H])C1([H])c2c([H])c([H])c(Sc3sc([H])c([H])c3[H])c([H])c2OC([H])([H])C1([H])[H]


 29 32  0  0  0  0  0  0  0  0999 V2000
   53.5125   -4.3479   -7.5192 C   0  0  0  0  0  0  0  0  0  0  0  0
   52.7032   -3.0846   -7.7662 C   0  0  0  0  0  0  0  0  0  0  0  0
   52.1494   -3.0925   -9.1575 C   0  0  0  0  0  0  0  0  0  0  0  0
   53.1424   -3.3624  -10.1005 O   0  0  0  0  0  0  0  0  0  0  0  0
   54.4038   -3.8489   -9.7573 C   0  0  0  0  0  0  0  0  0  0  0  0
   55.4415   -3.8334  -10.6981 C   0  0  0  0  0  0  0  0  0  0  0  0
   56.7004   -4.3090  -10.3854 C   0  0  0  0  0  0  0  0  0  0  0  0
   56.8957   -4.7996   -9.1109 C   0  0  0  0  0  0  0  0  0  0  0  0
   55.8635   -4.8180   -8.1662 C   0  0  0  0  0  0  0  0  0  0  0  0
   54.6318   -4.3416   -8.5050 C   0  0  0  0  0  0  0  0  0  0  0  0
   52.5976   -5.5212   -7.7408 C   0  0  0  0  0  0  0  0  0  0  0  0
   51.6286   -5.7041   -6.6630 N   0  0  0  0  0  0  0  0  0  0  0  0
   50.6211   -5.6818   -6.9009 H   0  0  0  0  0  0  0  0  0  0  0  0
   51.2882   -5.4008   -4.2440 C   0  0  0  0  0  0  0  0  0  0  0  0
   51.8242   -5.5958   -2.9506 C   0  0  0  0  0  0  0  0  0  0  0  0
   53.0118   -6.2324   -2.7441 C   0  0  0  0  0  0  0  0  0  0  0  0
   53.6926   -6.6868   -3.7934 N   0  0  0  0  0  0  0  0  0  0  0  0
   53.2328   -6.5290   -5.0395 C   0  0  0  0  0  0  0  0  0  0  0  0
   52.0175   -5.8817   -5.3053 C   0  0  0  0  0  0  0  0  0  0  0  0
   49.6510   -4.0248   -5.3013 O   0  0  0  0  0  0  0  0  0  0  0  0
   50.0143   -4.7534   -4.3833 C   0  0  0  0  0  0  0  0  0  0  0  0
   49.0540   -4.9575   -3.3696 O   0  0  0  0  0  0  0  0  0  0  0  0
   48.7656   -4.2170   -2.7523 H   0  0  0  0  0  0  0  0  0  0  0  0
   57.9581   -4.2544  -11.6310 S   0  0  0  0  0  0  0  0  0  0  0  0
   57.2366   -4.3015  -13.2855 C   0  0  0  0  0  0  0  0  0  0  0  0
   56.2077   -5.1000  -13.7191 C   0  0  0  0  0  0  0  0  0  0  0  0
   55.8316   -4.9638  -15.0050 C   0  0  0  0  0  0  0  0  0  0  0  0
   56.5084   -4.0428  -15.7625 C   0  0  0  0  0  0  0  0  0  0  0  0
   57.6396   -3.3997  -14.6676 S   0  0  0  0  0  0  0  0  0  0  0  0
 20 21  2  0  0  0
 21 22  1  0  0  0
 21 14  1  0  0  0
 14 15  2  0  0  0
 15 16  1  0  0  0
 16 17  2  0  0  0
 17 18  1  0  0  0
 18 19  2  0  0  0
 19 12  1  0  0  0
 12 11  1  0  0  0
 11  1  1  0  0  0
  1  2  1  0  0  0
  2  3  1  0  0  0
  3  4  1  0  0  0
  4  5  1  0  0  0
  5  6  2  0  0  0
  6  7  1  0  0  0
  7 24  1  0  0  0
 24 25  1  0  0  0
 25 26  2  0  0  0
 26 27  1  0  0  0
 27 28  2  0  0  0
 28 29  1  0  0  0
  7  8  2  0  0  0
  8  9  1  0  0  0
  9 10  2  0  0  0
 19 14  1  0  0  0
 10  1  1  0  0  0
 10  5  1  0  0  0
 29 25  1  0  0  0
 22 23  1  0  0  0
 12 13  1  0  0  0
M  END
> <minimizedAffinity>
-8.21499

> <CNNscore>
0.3580372930

> <CNNaffinity>
6.7233047485

> <CNN_VS>
2.4071938992

> <CNNaffinity_variance>
0.0767821744

$$$$
[H]OC(=O)c1c([H])c([H])nc([H])c1N([H])C([H])([H])C1([H])c2c([H])c([H])c(Sc3sc([H])c([H])c3[H])c([H])c2OC([H])([H])C1([H])[H]


 29 32  0  0  0  0  0  0  0  0999 V2000
   54.5021   -4.1422   -7.6093 C   0  0  0  0  0  0  0  0  0  0  0  0
   54.0042   -2.9157   -8.3573 C   0  0  0  0  0  0  0  0  0  0  0  0
   53.7474   -3.2577   -9.7924 C   0  0  0  0  0  0  0  0  0  0  0  0
   54.8419   -3.9066  -10.3661 O   0  0  0  0  0  0  0  0  0  0  0  0
   55.8983   -4.4223   -9.6154 C   0  0  0  0  0  0  0  0  0  0  0  0
   57.0878   -4.8049  -10.2486 C   0  0  0  0  0  0  0  0  0  0  0  0
   58.1499   -5.3188   -9.5298 C   0  0  0  0  0  0  0  0  0  0  0  0
   57.9935   -5.4404   -8.1645 C   0  0  0  0  0  0  0  0  0  0  0  0
   56.8080   -5.0602   -7.5256 C   0  0  0  0  0  0  0  0  0  0  0  0
   55.7774   -4.5563   -8.2625 C   0  0  0  0  0  0  0  0  0  0  0  0
   53.4504   -5.2097   -7.7411 C   0  0  0  0  0  0  0  0  0  0  0  0
   52.6536   -5.3822   -6.5289 N   0  0  0  0  0  0  0  0  0  0  0  0
   52.9209   -6.1349   -5.8699 H   0  0  0  0  0  0  0  0  0  0  0  0
   50.7978   -4.6811   -5.0716 C   0  0  0  0  0  0  0  0  0  0  0  0
   49.6528   -3.8624   -4.9426 C   0  0  0  0  0  0  0  0  0  0  0  0
   49.2618   -2.9994   -5.9228 C   0  0  0  0  0  0  0  0  0  0  0  0
   49.9797   -2.9228   -7.0406 N   0  0  0  0  0  0  0  0  0  0  0  0
   51.0717   -3.6750   -7.2162 C   0  0  0  0  0  0  0  0  0  0  0  0
   51.5158   -4.5776   -6.2391 C   0  0  0  0  0  0  0  0  0  0  0  0
   52.1616   -6.2597   -3.9139 O   0  0  0  0  0  0  0  0  0  0  0  0
   51.1700   -5.5403   -3.9831 C   0  0  0  0  0  0  0  0  0  0  0  0
   50.3227   -5.5843   -2.8554 O   0  0  0  0  0  0  0  0  0  0  0  0
   49.7894   -6.4049   -2.6218 H   0  0  0  0  0  0  0  0  0  0  0  0
   59.6192   -5.7788  -10.4049 S   0  0  0  0  0  0  0  0  0  0  0  0
   60.6648   -6.8537   -9.3993 C   0  0  0  0  0  0  0  0  0  0  0  0
   61.3397   -6.5173   -8.2523 C   0  0  0  0  0  0  0  0  0  0  0  0
   62.0643   -7.4887   -7.6650 C   0  0  0  0  0  0  0  0  0  0  0  0
   62.0623   -8.7220   -8.2640 C   0  0  0  0  0  0  0  0  0  0  0  0
   61.0583   -8.4919   -9.6171 S   0  0  0  0  0  0  0  0  0  0  0  0
 20 21  2  0  0  0
 21 22  1  0  0  0
 21 14  1  0  0  0
 14 15  2  0  0  0
 15 16  1  0  0  0
 16 17  2  0  0  0
 17 18  1  0  0  0
 18 19  2  0  0  0
 19 12  1  0  0  0
 12 11  1  0  0  0
 11  1  1  0  0  0
  1  2  1  0  0  0
  2  3  1  0  0  0
  3  4  1  0  0  0
  4  5  1  0  0  0
  5  6  2  0  0  0
  6  7  1  0  0  0
  7 24  1  0  0  0
 24 25  1  0  0  0
 25 26  2  0  0  0
 26 27  1  0  0  0
 27 28  2  0  0  0
 28 29  1  0  0  0
  7  8  2  0  0  0
  8  9  1  0  0  0
  9 10  2  0  0  0
 19 14  1  0  0  0
 10  1  1  0  0  0
 10  5  1  0  0  0
 29 25  1  0  0  0
 22 23  1  0  0  0
 12 13  1  0  0  0
M  END
> <minimizedAffinity>
-8.16234

> <CNNscore>
0.3177846670

> <CNNaffinity>
6.3654961586

> <CNN_VS>
2.0228571892

> <CNNaffinity_variance>
0.0949594080

$$$$
[H]OC(=O)c1c([H])c([H])nc([H])c1N([H])C([H])([H])C1([H])c2c([H])c([H])c(Sc3sc([H])c([H])c3[H])c([H])c2OC([H])([H])C1([H])[H]


 29 32  0  0  0  0  0  0  0  0999 V2000
   53.6200   -4.2881   -7.5624 C   0  0  0  0  0  0  0  0  0  0  0  0
   52.8001   -3.0383   -7.8411 C   0  0  0  0  0  0  0  0  0  0  0  0
   52.2330   -3.0936   -9.2260 C   0  0  0  0  0  0  0  0  0  0  0  0
   53.2186   -3.3869  -10.1697 O   0  0  0  0  0  0  0  0  0  0  0  0
   54.4865   -3.8544   -9.8237 C   0  0  0  0  0  0  0  0  0  0  0  0
   55.5149   -3.8620  -10.7747 C   0  0  0  0  0  0  0  0  0  0  0  0
   56.7799   -4.3196  -10.4595 C   0  0  0  0  0  0  0  0  0  0  0  0
   56.9907   -4.7685   -9.1721 C   0  0  0  0  0  0  0  0  0  0  0  0
   55.9677   -4.7636   -8.2172 C   0  0  0  0  0  0  0  0  0  0  0  0
   54.7297   -4.3058   -8.5588 C   0  0  0  0  0  0  0  0  0  0  0  0
   52.7107   -5.4736   -7.7381 C   0  0  0  0  0  0  0  0  0  0  0  0
   52.5418   -6.2528   -6.5140 N   0  0  0  0  0  0  0  0  0  0  0  0
   52.9727   -7.1933   -6.4685 H   0  0  0  0  0  0  0  0  0  0  0  0
   52.1948   -5.9305   -4.0984 C   0  0  0  0  0  0  0  0  0  0  0  0
   51.3179   -5.4679   -3.0909 C   0  0  0  0  0  0  0  0  0  0  0  0
   50.1163   -4.8928   -3.3808 C   0  0  0  0  0  0  0  0  0  0  0  0
   49.7532   -4.7613   -4.6542 N   0  0  0  0  0  0  0  0  0  0  0  0
   50.5436   -5.1823   -5.6477 C   0  0  0  0  0  0  0  0  0  0  0  0
   51.7883   -5.7800   -5.4028 C   0  0  0  0  0  0  0  0  0  0  0  0
   53.6588   -7.3851   -2.9013 O   0  0  0  0  0  0  0  0  0  0  0  0
   53.4605   -6.4931   -3.7202 C   0  0  0  0  0  0  0  0  0  0  0  0
   54.6220   -5.9853   -4.3403 O   0  0  0  0  0  0  0  0  0  0  0  0
   55.3078   -5.4529   -3.8316 H   0  0  0  0  0  0  0  0  0  0  0  0
   58.0253   -4.2963  -11.7184 S   0  0  0  0  0  0  0  0  0  0  0  0
   57.2848   -4.3048  -13.3651 C   0  0  0  0  0  0  0  0  0  0  0  0
   56.2483   -5.0902  -13.8043 C   0  0  0  0  0  0  0  0  0  0  0  0
   55.8581   -4.9246  -15.0825 C   0  0  0  0  0  0  0  0  0  0  0  0
   56.5293   -3.9894  -15.8273 C   0  0  0  0  0  0  0  0  0  0  0  0
   57.6752   -3.3741  -14.7316 S   0  0  0  0  0  0  0  0  0  0  0  0
 20 21  2  0  0  0
 21 22  1  0  0  0
 21 14  1  0  0  0
 14 15  2  0  0  0
 15 16  1  0  0  0
 16 17  2  0  0  0
 17 18  1  0  0  0
 18 19  2  0  0  0
 19 12  1  0  0  0
 12 11  1  0  0  0
 11  1  1  0  0  0
  1  2  1  0  0  0
  2  3  1  0  0  0
  3  4  1  0  0  0
  4  5  1  0  0  0
  5  6  2  0  0  0
  6  7  1  0  0  0
  7 24  1  0  0  0
 24 25  1  0  0  0
 25 26  2  0  0  0
 26 27  1  0  0  0
 27 28  2  0  0  0
 28 29  1  0  0  0
  7  8  2  0  0  0
  8  9  1  0  0  0
  9 10  2  0  0  0
 19 14  1  0  0  0
 10  1  1  0  0  0
 10  5  1  0  0  0
 29 25  1  0  0  0
 22 23  1  0  0  0
 12 13  1  0  0  0
M  END
> <minimizedAffinity>
-8.11587

> <CNNscore>
0.2855294943

> <CNNaffinity>
6.4121589661

> <CNN_VS>
1.8308604956

> <CNNaffinity_variance>
0.0415266082

$$$$
[H]OC(=O)c1c([H])c([H])nc([H])c1N([H])C([H])([H])C1([H])c2c([H])c([H])c(Sc3sc([H])c([H])c3[H])c([H])c2OC([H])([H])C1([H])[H]


 29 32  0  0  0  0  0  0  0  0999 V2000
   53.8642   -4.5544   -8.7057 C   0  0  0  0  0  0  0  0  0  0  0  0
   52.9661   -3.9636   -9.7810 C   0  0  0  0  0  0  0  0  0  0  0  0
   52.4041   -2.6546   -9.3194 C   0  0  0  0  0  0  0  0  0  0  0  0
   51.8296   -2.7643   -8.0521 O   0  0  0  0  0  0  0  0  0  0  0  0
   52.0253   -3.8684   -7.2224 C   0  0  0  0  0  0  0  0  0  0  0  0
   51.2113   -4.0536   -6.0976 C   0  0  0  0  0  0  0  0  0  0  0  0
   51.3829   -5.1379   -5.2587 C   0  0  0  0  0  0  0  0  0  0  0  0
   52.3870   -6.0307   -5.5718 C   0  0  0  0  0  0  0  0  0  0  0  0
   53.2038   -5.8516   -6.6938 C   0  0  0  0  0  0  0  0  0  0  0  0
   53.0097   -4.7714   -7.5027 C   0  0  0  0  0  0  0  0  0  0  0  0
   54.9536   -3.5550   -8.4275 C   0  0  0  0  0  0  0  0  0  0  0  0
   55.9522   -3.4845   -9.4914 N   0  0  0  0  0  0  0  0  0  0  0  0
   55.7809   -2.8381  -10.2820 H   0  0  0  0  0  0  0  0  0  0  0  0
   57.7558   -4.7003  -10.6439 C   0  0  0  0  0  0  0  0  0  0  0  0
   58.8793   -5.5457  -10.4988 C   0  0  0  0  0  0  0  0  0  0  0  0
   59.3365   -5.9443   -9.2779 C   0  0  0  0  0  0  0  0  0  0  0  0
   58.7059   -5.5256   -8.1835 N   0  0  0  0  0  0  0  0  0  0  0  0
   57.6371   -4.7253   -8.2623 C   0  0  0  0  0  0  0  0  0  0  0  0
   57.1276   -4.2871   -9.4931 C   0  0  0  0  0  0  0  0  0  0  0  0
   57.7576   -4.7368  -13.0294 O   0  0  0  0  0  0  0  0  0  0  0  0
   57.3526   -4.2919  -11.9600 C   0  0  0  0  0  0  0  0  0  0  0  0
   56.3867   -3.2687  -12.0684 O   0  0  0  0  0  0  0  0  0  0  0  0
   56.6134   -2.3590  -12.4336 H   0  0  0  0  0  0  0  0  0  0  0  0
   50.3123   -5.3003   -3.8574 S   0  0  0  0  0  0  0  0  0  0  0  0
   48.8840   -4.2050   -4.0005 C   0  0  0  0  0  0  0  0  0  0  0  0
   48.8133   -3.0202   -4.6900 C   0  0  0  0  0  0  0  0  0  0  0  0
   47.6365   -2.3663   -4.6578 C   0  0  0  0  0  0  0  0  0  0  0  0
   46.6185   -2.9414   -3.9415 C   0  0  0  0  0  0  0  0  0  0  0  0
   47.3274   -4.3650   -3.3393 S   0  0  0  0  0  0  0  0  0  0  0  0
 20 21  2  0  0  0
 21 22  1  0  0  0
 21 14  1  0  0  0
 14 15  2  0  0  0
 15 16  1  0  0  0
 16 17  2  0  0  0
 17 18  1  0  0  0
 18 19  2  0  0  0
 19 12  1  0  0  0
 12 11  1  0  0  0
 11  1  1  0  0  0
  1  2  1  0  0  0
  2  3  1  0  0  0
  3  4  1  0  0  0
  4  5  1  0  0  0
  5  6  2  0  0  0
  6  7  1  0  0  0
  7 24  1  0  0  0
 24 25  1  0  0  0
 25 26  2  0  0  0
 26 27  1  0  0  0
 27 28  2  0  0  0
 28 29  1  0  0  0
  7  8  2  0  0  0
  8  9  1  0  0  0
  9 10  2  0  0  0
 19 14  1  0  0  0
 10  1  1  0  0  0
 10  5  1  0  0  0
 29 25  1  0  0  0
 22 23  1  0  0  0
 12 13  1  0  0  0
M  END
> <minimizedAffinity>
-7.81559

> <CNNscore>
0.2587677538

> <CNNaffinity>
6.4959769249

> <CNN_VS>
1.6809493303

> <CNNaffinity_variance>
0.0777291209

$$$$
[H]OC(=O)c1c([H])c([H])nc([H])c1N([H])C([H])([H])C1([H])c2c([H])c([H])c(Sc3sc([H])c([H])c3[H])c([H])c2OC([H])([H])C1([H])[H]


 29 32  0  0  0  0  0  0  0  0999 V2000
   53.1059   -6.8014   -3.1587 C   0  0  0  0  0  0  0  0  0  0  0  0
   53.8232   -6.8088   -1.8181 C   0  0  0  0  0  0  0  0  0  0  0  0
   54.3437   -5.4399   -1.5058 C   0  0  0  0  0  0  0  0  0  0  0  0
   55.0739   -4.9157   -2.5736 O   0  0  0  0  0  0  0  0  0  0  0  0
   55.0584   -5.4746   -3.8516 C   0  0  0  0  0  0  0  0  0  0  0  0
   56.0139   -5.0854   -4.7990 C   0  0  0  0  0  0  0  0  0  0  0  0
   56.0219   -5.6225   -6.0720 C   0  0  0  0  0  0  0  0  0  0  0  0
   55.0525   -6.5567   -6.3735 C   0  0  0  0  0  0  0  0  0  0  0  0
   54.0950   -6.9499   -5.4317 C   0  0  0  0  0  0  0  0  0  0  0  0
   54.1132   -6.4016   -4.1835 C   0  0  0  0  0  0  0  0  0  0  0  0
   51.9909   -5.7957   -3.0690 C   0  0  0  0  0  0  0  0  0  0  0  0
   51.0232   -5.9142   -4.1570 N   0  0  0  0  0  0  0  0  0  0  0  0
   50.8935   -6.8418   -4.5985 H   0  0  0  0  0  0  0  0  0  0  0  0
   50.5019   -4.2310   -5.8759 C   0  0  0  0  0  0  0  0  0  0  0  0
   49.7317   -3.0931   -6.2076 C   0  0  0  0  0  0  0  0  0  0  0  0
   48.8027   -2.5708   -5.3576 C   0  0  0  0  0  0  0  0  0  0  0  0
   48.6120   -3.1490   -4.1743 N   0  0  0  0  0  0  0  0  0  0  0  0
   49.3136   -4.2274   -3.8083 C   0  0  0  0  0  0  0  0  0  0  0  0
   50.2802   -4.8029   -4.6457 C   0  0  0  0  0  0  0  0  0  0  0  0
   52.3554   -4.1389   -7.3752 O   0  0  0  0  0  0  0  0  0  0  0  0
   51.4366   -4.7474   -6.8356 C   0  0  0  0  0  0  0  0  0  0  0  0
   51.3106   -6.0992   -7.2208 O   0  0  0  0  0  0  0  0  0  0  0  0
   51.0256   -6.3641   -8.1487 H   0  0  0  0  0  0  0  0  0  0  0  0
   57.2633   -5.0779   -7.2115 S   0  0  0  0  0  0  0  0  0  0  0  0
   56.5363   -4.6448   -8.8064 C   0  0  0  0  0  0  0  0  0  0  0  0
   55.2727   -4.1610   -9.0379 C   0  0  0  0  0  0  0  0  0  0  0  0
   54.9436   -3.9059  -10.3186 C   0  0  0  0  0  0  0  0  0  0  0  0
   55.8973   -4.1516  -11.2724 C   0  0  0  0  0  0  0  0  0  0  0  0
   57.2137   -4.7265  -10.3621 S   0  0  0  0  0  0  0  0  0  0  0  0
 20 21  2  0  0  0
 21 22  1  0  0  0
 21 14  1  0  0  0
 14 15  2  0  0  0
 15 16  1  0  0  0
 16 17  2  0  0  0
 17 18  1  0  0  0
 18 19  2  0  0  0
 19 12  1  0  0  0
 12 11  1  0  0  0
 11  1  1  0  0  0
  1  2  1  0  0  0
  2  3  1  0  0  0
  3  4  1  0  0  0
  4  5  1  0  0  0
  5  6  2  0  0  0
  6  7  1  0  0  0
  7 24  1  0  0  0
 24 25  1  0  0  0
 25 26  2  0  0  0
 26 27  1  0  0  0
 27 28  2  0  0  0
 28 29  1  0  0  0
  7  8  2  0  0  0
  8  9  1  0  0  0
  9 10  2  0  0  0
 19 14  1  0  0  0
 10  1  1  0  0  0
 10  5  1  0  0  0
 29 25  1  0  0  0
 22 23  1  0  0  0
 12 13  1  0  0  0
M  END
> <minimizedAffinity>
-8.59028

> <CNNscore>
0.2348969728

> <CNNaffinity>
6.3865118027

> <CNN_VS>
1.5001722574

> <CNNaffinity_variance>
0.2809895873

$$$$
[H]OC(=O)c1c([H])c([H])nc([H])c1N([H])C([H])([H])C1([H])c2c([H])c([H])c(Sc3sc([H])c([H])c3[H])c([H])c2OC([H])([H])C1([H])[H]


 29 32  0  0  0  0  0  0  0  0999 V2000
   54.1668   -4.9603   -8.2969 C   0  0  0  0  0  0  0  0  0  0  0  0
   54.9611   -5.6262   -7.1845 C   0  0  0  0  0  0  0  0  0  0  0  0
   55.9883   -4.6780   -6.6476 C   0  0  0  0  0  0  0  0  0  0  0  0
   56.7492   -4.1153   -7.6735 O   0  0  0  0  0  0  0  0  0  0  0  0
   56.3938   -4.2045   -9.0195 C   0  0  0  0  0  0  0  0  0  0  0  0
   57.3234   -3.8742  -10.0138 C   0  0  0  0  0  0  0  0  0  0  0  0
   56.9984   -3.9532  -11.3544 C   0  0  0  0  0  0  0  0  0  0  0  0
   55.7230   -4.3699  -11.6753 C   0  0  0  0  0  0  0  0  0  0  0  0
   54.7895   -4.7014  -10.6870 C   0  0  0  0  0  0  0  0  0  0  0  0
   55.1403   -4.6132   -9.3724 C   0  0  0  0  0  0  0  0  0  0  0  0
   53.5287   -3.7261   -7.7203 C   0  0  0  0  0  0  0  0  0  0  0  0
   52.1053   -3.6184   -8.0306 N   0  0  0  0  0  0  0  0  0  0  0  0
   51.8169   -3.6485   -9.0246 H   0  0  0  0  0  0  0  0  0  0  0  0
   50.8420   -4.3919   -6.0645 C   0  0  0  0  0  0  0  0  0  0  0  0
   49.7873   -4.1152   -5.1649 C   0  0  0  0  0  0  0  0  0  0  0  0
   49.0590   -2.9647   -5.2300 C   0  0  0  0  0  0  0  0  0  0  0  0
   49.3477   -2.0695   -6.1713 N   0  0  0  0  0  0  0  0  0  0  0  0
   50.3347   -2.2800   -7.0492 C   0  0  0  0  0  0  0  0  0  0  0  0
   51.1129   -3.4463   -7.0248 C   0  0  0  0  0  0  0  0  0  0  0  0
   52.3279   -5.9124   -4.9819 O   0  0  0  0  0  0  0  0  0  0  0  0
   51.5896   -5.6083   -5.9136 C   0  0  0  0  0  0  0  0  0  0  0  0
   51.4850   -6.5798   -6.9318 O   0  0  0  0  0  0  0  0  0  0  0  0
   52.2585   -6.8047   -7.5348 H   0  0  0  0  0  0  0  0  0  0  0  0
   58.2303   -3.5182  -12.5499 S   0  0  0  0  0  0  0  0  0  0  0  0
   57.5610   -3.5828  -14.2256 C   0  0  0  0  0  0  0  0  0  0  0  0
   56.3193   -4.0276  -14.6061 C   0  0  0  0  0  0  0  0  0  0  0  0
   56.0336   -3.9838  -15.9214 C   0  0  0  0  0  0  0  0  0  0  0  0
   57.0056   -3.5004  -16.7589 C   0  0  0  0  0  0  0  0  0  0  0  0
   58.2785   -3.1246  -15.6956 S   0  0  0  0  0  0  0  0  0  0  0  0
 20 21  2  0  0  0
 21 22  1  0  0  0
 21 14  1  0  0  0
 14 15  2  0  0  0
 15 16  1  0  0  0
 16 17  2  0  0  0
 17 18  1  0  0  0
 18 19  2  0  0  0
 19 12  1  0  0  0
 12 11  1  0  0  0
 11  1  1  0  0  0
  1  2  1  0  0  0
  2  3  1  0  0  0
  3  4  1  0  0  0
  4  5  1  0  0  0
  5  6  2  0  0  0
  6  7  1  0  0  0
  7 24  1  0  0  0
 24 25  1  0  0  0
 25 26  2  0  0  0
 26 27  1  0  0  0
 27 28  2  0  0  0
 28 29  1  0  0  0
  7  8  2  0  0  0
  8  9  1  0  0  0
  9 10  2  0  0  0
 19 14  1  0  0  0
 10  1  1  0  0  0
 10  5  1  0  0  0
 29 25  1  0  0  0
 22 23  1  0  0  0
 12 13  1  0  0  0
M  END
> <minimizedAffinity>
-6.93605

> <CNNscore>
0.2269396633

> <CNNaffinity>
6.2406034470

> <CNN_VS>
1.4162404537

> <CNNaffinity_variance>
0.0313198790

$$$$
[H]N=c1c(C(=O)N([H])C([H])([H])c2oc([H])c([H])c2[H])c([H])c2c(=O)n3c([H])c([H])c([H])c([H])c3nc2n1C([H])([H])c1c([H])c([H])c(C([H])([H])[H])c([H])c1[H]


 35 39  0  0  0  0  0  0  0  0999 V2000
   54.6444   -5.6060   -6.9982 N   0  0  0  0  0  0  0  0  0  0  0  0
   55.6541   -5.3831   -7.8821 C   0  0  0  0  0  0  0  0  0  0  0  0
   56.6878   -6.0727   -7.7278 N   0  0  0  0  0  0  0  0  0  0  0  0
   55.6178   -4.4258   -8.8624 C   0  0  0  0  0  0  0  0  0  0  0  0
   54.4613   -3.6418   -8.9312 C   0  0  0  0  0  0  0  0  0  0  0  0
   53.4351   -3.8332   -8.0657 C   0  0  0  0  0  0  0  0  0  0  0  0
   52.3165   -3.0420   -8.1412 C   0  0  0  0  0  0  0  0  0  0  0  0
   52.2056   -2.1433   -9.0103 O   0  0  0  0  0  0  0  0  0  0  0  0
   51.3069   -3.2186   -7.2739 N   0  0  0  0  0  0  0  0  0  0  0  0
   50.2015   -2.4489   -7.3356 C   0  0  0  0  0  0  0  0  0  0  0  0
   49.1515   -2.5884   -6.4800 C   0  0  0  0  0  0  0  0  0  0  0  0
   49.2121   -3.5672   -5.4929 C   0  0  0  0  0  0  0  0  0  0  0  0
   50.3526   -4.3337   -5.4583 C   0  0  0  0  0  0  0  0  0  0  0  0
   51.4058   -4.1782   -6.3330 C   0  0  0  0  0  0  0  0  0  0  0  0
   52.5070   -4.9418   -6.2762 N   0  0  0  0  0  0  0  0  0  0  0  0
   53.5583   -4.8256   -7.1097 C   0  0  0  0  0  0  0  0  0  0  0  0
   57.5580   -6.1317   -8.1968 H   0  0  0  0  0  0  0  0  0  0  0  0
   56.5922   -4.1912   -9.8961 C   0  0  0  0  0  0  0  0  0  0  0  0
   57.7973   -4.5692   -9.5981 O   0  0  0  0  0  0  0  0  0  0  0  0
   56.3870   -3.6053  -11.1577 N   0  0  0  0  0  0  0  0  0  0  0  0
   55.4556   -3.2561  -11.4204 H   0  0  0  0  0  0  0  0  0  0  0  0
   57.4736   -3.4378  -12.1159 C   0  0  0  0  0  0  0  0  0  0  0  0
   57.0673   -3.7909  -13.4833 C   0  0  0  0  0  0  0  0  0  0  0  0
   56.1505   -4.7352  -13.8580 C   0  0  0  0  0  0  0  0  0  0  0  0
   56.0843   -4.7288  -15.2590 C   0  0  0  0  0  0  0  0  0  0  0  0
   56.9814   -3.7638  -15.6420 C   0  0  0  0  0  0  0  0  0  0  0  0
   57.5277   -3.2468  -14.5835 O   0  0  0  0  0  0  0  0  0  0  0  0
   54.7517   -6.5978   -5.9676 C   0  0  0  0  0  0  0  0  0  0  0  0
   55.6431   -4.9799   -0.4665 C   0  0  0  0  0  0  0  0  0  0  0  0
   55.4547   -5.3412   -1.8993 C   0  0  0  0  0  0  0  0  0  0  0  0
   56.1330   -4.7630   -2.9204 C   0  0  0  0  0  0  0  0  0  0  0  0
   55.9090   -5.1533   -4.2541 C   0  0  0  0  0  0  0  0  0  0  0  0
   55.0080   -6.1237   -4.5964 C   0  0  0  0  0  0  0  0  0  0  0  0
   54.3254   -6.7005   -3.5170 C   0  0  0  0  0  0  0  0  0  0  0  0
   54.5421   -6.3191   -2.1993 C   0  0  0  0  0  0  0  0  0  0  0  0
 29 30  1  0  0  0
 30 31  2  0  0  0
 31 32  1  0  0  0
 32 33  2  0  0  0
 33 28  1  0  0  0
 28  1  1  0  0  0
  1  2  1  0  0  0
  2  3  2  0  0  0
  2  4  1  0  0  0
  4 18  1  0  0  0
 18 19  2  0  0  0
 18 20  1  0  0  0
 20 22  1  0  0  0
 22 23  1  0  0  0
 23 24  2  0  0  0
 24 25  1  0  0  0
 25 26  2  0  0  0
 26 27  1  0  0  0
  4  5  2  0  0  0
  5  6  1  0  0  0
  6  7  1  0  0  0
  7  8  2  0  0  0
  7  9  1  0  0  0
  9 10  1  0  0  0
 10 11  2  0  0  0
 11 12  1  0  0  0
 12 13  2  0  0  0
 13 14  1  0  0  0
 14 15  2  0  0  0
 15 16  1  0  0  0
 33 34  1  0  0  0
 34 35  2  0  0  0
 35 30  1  0  0  0
 16  1  1  0  0  0
 27 23  1  0  0  0
 16  6  2  0  0  0
 14  9  1  0  0  0
  3 17  1  0  0  0
 20 21  1  0  0  0
M  END
> <minimizedAffinity>
-11.20680

> <CNNscore>
0.6925963163

> <CNNaffinity>
7.4189667702

> <CNN_VS>
5.1383490562

> <CNNaffinity_variance>
0.1666463763

$$$$
[H]N=c1c(C(=O)N([H])C([H])([H])c2oc([H])c([H])c2[H])c([H])c2c(=O)n3c([H])c([H])c([H])c([H])c3nc2n1C([H])([H])c1c([H])c([H])c(C([H])([H])[H])c([H])c1[H]


 35 39  0  0  0  0  0  0  0  0999 V2000
   56.1884   -5.1396   -8.2903 N   0  0  0  0  0  0  0  0  0  0  0  0
   56.8751   -4.8100   -9.4173 C   0  0  0  0  0  0  0  0  0  0  0  0
   58.0753   -5.1647   -9.4585 N   0  0  0  0  0  0  0  0  0  0  0  0
   56.3491   -4.0768  -10.4491 C   0  0  0  0  0  0  0  0  0  0  0  0
   55.0247   -3.6504  -10.3044 C   0  0  0  0  0  0  0  0  0  0  0  0
   54.3094   -3.9575   -9.1941 C   0  0  0  0  0  0  0  0  0  0  0  0
   53.0166   -3.5155   -9.0661 C   0  0  0  0  0  0  0  0  0  0  0  0
   52.4621   -2.8387   -9.9660 O   0  0  0  0  0  0  0  0  0  0  0  0
   52.3126   -3.8038   -7.9597 N   0  0  0  0  0  0  0  0  0  0  0  0
   51.0415   -3.3763   -7.8196 C   0  0  0  0  0  0  0  0  0  0  0  0
   50.2864   -3.6422   -6.7181 C   0  0  0  0  0  0  0  0  0  0  0  0
   50.8428   -4.3883   -5.6839 C   0  0  0  0  0  0  0  0  0  0  0  0
   52.1400   -4.8081   -5.8592 C   0  0  0  0  0  0  0  0  0  0  0  0
   52.8892   -4.5294   -6.9815 C   0  0  0  0  0  0  0  0  0  0  0  0
   54.1536   -4.9530   -7.1259 N   0  0  0  0  0  0  0  0  0  0  0  0
   54.9215   -4.7053   -8.2041 C   0  0  0  0  0  0  0  0  0  0  0  0
   58.8037   -5.0697  -10.1225 H   0  0  0  0  0  0  0  0  0  0  0  0
   56.9679   -3.7707  -11.7126 C   0  0  0  0  0  0  0  0  0  0  0  0
   56.1358   -3.4815  -12.6654 O   0  0  0  0  0  0  0  0  0  0  0  0
   58.3398   -3.7587  -12.0205 N   0  0  0  0  0  0  0  0  0  0  0  0
   59.0325   -4.0193  -11.3058 H   0  0  0  0  0  0  0  0  0  0  0  0
   58.8282   -3.4180  -13.3518 C   0  0  0  0  0  0  0  0  0  0  0  0
   60.2450   -3.7653  -13.5290 C   0  0  0  0  0  0  0  0  0  0  0  0
   61.2031   -3.0340  -14.1769 C   0  0  0  0  0  0  0  0  0  0  0  0
   62.4072   -3.7491  -14.0981 C   0  0  0  0  0  0  0  0  0  0  0  0
   62.0888   -4.8838  -13.3954 C   0  0  0  0  0  0  0  0  0  0  0  0
   60.8280   -4.8526  -13.0860 O   0  0  0  0  0  0  0  0  0  0  0  0
   56.8013   -5.8783   -7.2245 C   0  0  0  0  0  0  0  0  0  0  0  0
   53.8993   -6.5060   -2.2387 C   0  0  0  0  0  0  0  0  0  0  0  0
   54.6558   -6.2774   -3.5013 C   0  0  0  0  0  0  0  0  0  0  0  0
   55.3488   -5.1447   -3.7732 C   0  0  0  0  0  0  0  0  0  0  0  0
   56.0458   -4.9934   -4.9867 C   0  0  0  0  0  0  0  0  0  0  0  0
   56.0664   -5.9636   -5.9504 C   0  0  0  0  0  0  0  0  0  0  0  0
   55.3408   -7.1207   -5.6367 C   0  0  0  0  0  0  0  0  0  0  0  0
   54.6510   -7.2753   -4.4412 C   0  0  0  0  0  0  0  0  0  0  0  0
 29 30  1  0  0  0
 30 31  2  0  0  0
 31 32  1  0  0  0
 32 33  2  0  0  0
 33 28  1  0  0  0
 28  1  1  0  0  0
  1  2  1  0  0  0
  2  3  2  0  0  0
  2  4  1  0  0  0
  4 18  1  0  0  0
 18 19  2  0  0  0
 18 20  1  0  0  0
 20 22  1  0  0  0
 22 23  1  0  0  0
 23 24  2  0  0  0
 24 25  1  0  0  0
 25 26  2  0  0  0
 26 27  1  0  0  0
  4  5  2  0  0  0
  5  6  1  0  0  0
  6  7  1  0  0  0
  7  8  2  0  0  0
  7  9  1  0  0  0
  9 10  1  0  0  0
 10 11  2  0  0  0
 11 12  1  0  0  0
 12 13  2  0  0  0
 13 14  1  0  0  0
 14 15  2  0  0  0
 15 16  1  0  0  0
 33 34  1  0  0  0
 34 35  2  0  0  0
 35 30  1  0  0  0
 16  1  1  0  0  0
 27 23  1  0  0  0
 16  6  2  0  0  0
 14  9  1  0  0  0
  3 17  1  0  0  0
 20 21  1  0  0  0
M  END
> <minimizedAffinity>
-9.55612

> <CNNscore>
0.6223225594

> <CNNaffinity>
7.0878686905

> <CNN_VS>
4.4109406471

> <CNNaffinity_variance>
0.2012839764

$$$$
[H]N=c1c(C(=O)N([H])C([H])([H])c2oc([H])c([H])c2[H])c([H])c2c(=O)n3c([H])c([H])c([H])c([H])c3nc2n1C([H])([H])c1c([H])c([H])c(C([H])([H])[H])c([H])c1[H]


 35 39  0  0  0  0  0  0  0  0999 V2000
   54.4412   -5.7042   -6.9928 N   0  0  0  0  0  0  0  0  0  0  0  0
   55.5192   -5.6782   -7.8222 C   0  0  0  0  0  0  0  0  0  0  0  0
   56.4541   -6.4621   -7.5404 N   0  0  0  0  0  0  0  0  0  0  0  0
   55.6519   -4.8173   -8.8805 C   0  0  0  0  0  0  0  0  0  0  0  0
   54.6015   -3.9183   -9.0936 C   0  0  0  0  0  0  0  0  0  0  0  0
   53.5121   -3.9130   -8.2863 C   0  0  0  0  0  0  0  0  0  0  0  0
   52.5004   -3.0118   -8.5040 C   0  0  0  0  0  0  0  0  0  0  0  0
   52.5459   -2.1902   -9.4518 O   0  0  0  0  0  0  0  0  0  0  0  0
   51.4290   -2.9935   -7.6950 N   0  0  0  0  0  0  0  0  0  0  0  0
   50.4272   -2.1137   -7.8964 C   0  0  0  0  0  0  0  0  0  0  0  0
   49.3207   -2.0553   -7.1049 C   0  0  0  0  0  0  0  0  0  0  0  0
   49.2091   -2.9396   -6.0365 C   0  0  0  0  0  0  0  0  0  0  0  0
   50.2477   -3.8226   -5.8599 C   0  0  0  0  0  0  0  0  0  0  0  0
   51.3603   -3.8673   -6.6715 C   0  0  0  0  0  0  0  0  0  0  0  0
   52.3590   -4.7410   -6.4758 N   0  0  0  0  0  0  0  0  0  0  0  0
   53.4627   -4.8206   -7.2433 C   0  0  0  0  0  0  0  0  0  0  0  0
   57.3366   -6.6612   -7.9429 H   0  0  0  0  0  0  0  0  0  0  0  0
   56.7048   -4.7896   -9.8622 C   0  0  0  0  0  0  0  0  0  0  0  0
   56.3029   -4.5895  -11.0797 O   0  0  0  0  0  0  0  0  0  0  0  0
   58.0847   -4.9586   -9.6517 N   0  0  0  0  0  0  0  0  0  0  0  0
   58.4433   -5.1579   -8.7082 H   0  0  0  0  0  0  0  0  0  0  0  0
   59.0451   -4.8961  -10.7474 C   0  0  0  0  0  0  0  0  0  0  0  0
   60.1609   -5.8341  -10.5617 C   0  0  0  0  0  0  0  0  0  0  0  0
   60.3158   -6.7497   -9.5565 C   0  0  0  0  0  0  0  0  0  0  0  0
   61.5248   -7.4245   -9.7808 C   0  0  0  0  0  0  0  0  0  0  0  0
   62.0268   -6.8607  -10.9267 C   0  0  0  0  0  0  0  0  0  0  0  0
   61.2063   -5.9451  -11.3448 O   0  0  0  0  0  0  0  0  0  0  0  0
   54.3719   -6.6026   -5.8768 C   0  0  0  0  0  0  0  0  0  0  0  0
   57.6318   -5.2166   -1.2805 C   0  0  0  0  0  0  0  0  0  0  0  0
   56.8244   -5.6365   -2.4597 C   0  0  0  0  0  0  0  0  0  0  0  0
   56.7740   -6.9076   -2.9278 C   0  0  0  0  0  0  0  0  0  0  0  0
   55.9875   -7.2385   -4.0473 C   0  0  0  0  0  0  0  0  0  0  0  0
   55.2382   -6.3135   -4.7207 C   0  0  0  0  0  0  0  0  0  0  0  0
   55.3128   -5.0106   -4.2100 C   0  0  0  0  0  0  0  0  0  0  0  0
   56.0874   -4.6783   -3.1062 C   0  0  0  0  0  0  0  0  0  0  0  0
 29 30  1  0  0  0
 30 31  2  0  0  0
 31 32  1  0  0  0
 32 33  2  0  0  0
 33 28  1  0  0  0
 28  1  1  0  0  0
  1  2  1  0  0  0
  2  3  2  0  0  0
  2  4  1  0  0  0
  4 18  1  0  0  0
 18 19  2  0  0  0
 18 20  1  0  0  0
 20 22  1  0  0  0
 22 23  1  0  0  0
 23 24  2  0  0  0
 24 25  1  0  0  0
 25 26  2  0  0  0
 26 27  1  0  0  0
  4  5  2  0  0  0
  5  6  1  0  0  0
  6  7  1  0  0  0
  7  8  2  0  0  0
  7  9  1  0  0  0
  9 10  1  0  0  0
 10 11  2  0  0  0
 11 12  1  0  0  0
 12 13  2  0  0  0
 13 14  1  0  0  0
 14 15  2  0  0  0
 15 16  1  0  0  0
 33 34  1  0  0  0
 34 35  2  0  0  0
 35 30  1  0  0  0
 16  1  1  0  0  0
 27 23  1  0  0  0
 16  6  2  0  0  0
 14  9  1  0  0  0
  3 17  1  0  0  0
 20 21  1  0  0  0
M  END
> <minimizedAffinity>
-7.82803

> <CNNscore>
0.5200012326

> <CNNaffinity>
7.0229454041

> <CNN_VS>
3.6519403458

> <CNNaffinity_variance>
0.3436104357

$$$$
[H]N=c1c(C(=O)N([H])C([H])([H])c2oc([H])c([H])c2[H])c([H])c2c(=O)n3c([H])c([H])c([H])c([H])c3nc2n1C([H])([H])c1c([H])c([H])c(C([H])([H])[H])c([H])c1[H]


 35 39  0  0  0  0  0  0  0  0999 V2000
   54.7073   -5.8813   -5.9483 N   0  0  0  0  0  0  0  0  0  0  0  0
   55.8383   -5.8403   -6.7032 C   0  0  0  0  0  0  0  0  0  0  0  0
   56.8168   -6.4910   -6.2708 N   0  0  0  0  0  0  0  0  0  0  0  0
   55.9717   -5.0934   -7.8447 C   0  0  0  0  0  0  0  0  0  0  0  0
   54.8628   -4.3328   -8.2300 C   0  0  0  0  0  0  0  0  0  0  0  0
   53.7192   -4.3465   -7.5015 C   0  0  0  0  0  0  0  0  0  0  0  0
   52.6488   -3.5803   -7.8893 C   0  0  0  0  0  0  0  0  0  0  0  0
   52.6909   -2.8686   -8.9223 O   0  0  0  0  0  0  0  0  0  0  0  0
   51.5218   -3.5791   -7.1595 N   0  0  0  0  0  0  0  0  0  0  0  0
   50.4619   -2.8314   -7.5279 C   0  0  0  0  0  0  0  0  0  0  0  0
   49.2978   -2.7959   -6.8224 C   0  0  0  0  0  0  0  0  0  0  0  0
   49.1866   -3.5628   -5.6667 C   0  0  0  0  0  0  0  0  0  0  0  0
   50.2852   -4.3128   -5.3202 C   0  0  0  0  0  0  0  0  0  0  0  0
   51.4557   -4.3363   -6.0467 C   0  0  0  0  0  0  0  0  0  0  0  0
   52.5124   -5.0789   -5.6850 N   0  0  0  0  0  0  0  0  0  0  0  0
   53.6739   -5.1330   -6.3643 C   0  0  0  0  0  0  0  0  0  0  0  0
   57.7420   -6.6447   -6.5888 H   0  0  0  0  0  0  0  0  0  0  0  0
   57.0893   -5.0701   -8.7522 C   0  0  0  0  0  0  0  0  0  0  0  0
   56.9573   -4.2516   -9.7505 O   0  0  0  0  0  0  0  0  0  0  0  0
   58.2743   -5.8235   -8.6805 N   0  0  0  0  0  0  0  0  0  0  0  0
   58.4042   -6.5125   -7.9275 H   0  0  0  0  0  0  0  0  0  0  0  0
   59.3345   -5.6893   -9.6729 C   0  0  0  0  0  0  0  0  0  0  0  0
   60.6086   -6.2511   -9.2034 C   0  0  0  0  0  0  0  0  0  0  0  0
   61.7003   -6.5773   -9.9614 C   0  0  0  0  0  0  0  0  0  0  0  0
   62.6830   -7.0783   -9.0950 C   0  0  0  0  0  0  0  0  0  0  0  0
   62.1079   -7.0195   -7.8506 C   0  0  0  0  0  0  0  0  0  0  0  0
   60.9080   -6.5351   -7.9591 O   0  0  0  0  0  0  0  0  0  0  0  0
   54.6358   -6.6526   -4.7412 C   0  0  0  0  0  0  0  0  0  0  0  0
   57.5364   -4.9024   -0.0297 C   0  0  0  0  0  0  0  0  0  0  0  0
   56.7927   -5.2850   -1.2624 C   0  0  0  0  0  0  0  0  0  0  0  0
   56.5852   -4.4505   -2.3101 C   0  0  0  0  0  0  0  0  0  0  0  0
   55.8751   -4.8766   -3.4483 C   0  0  0  0  0  0  0  0  0  0  0  0
   55.3592   -6.1378   -3.5654 C   0  0  0  0  0  0  0  0  0  0  0  0
   55.5925   -6.9739   -2.4653 C   0  0  0  0  0  0  0  0  0  0  0  0
   56.2920   -6.5588   -1.3397 C   0  0  0  0  0  0  0  0  0  0  0  0
 29 30  1  0  0  0
 30 31  2  0  0  0
 31 32  1  0  0  0
 32 33  2  0  0  0
 33 28  1  0  0  0
 28  1  1  0  0  0
  1  2  1  0  0  0
  2  3  2  0  0  0
  2  4  1  0  0  0
  4 18  1  0  0  0
 18 19  2  0  0  0
 18 20  1  0  0  0
 20 22  1  0  0  0
 22 23  1  0  0  0
 23 24  2  0  0  0
 24 25  1  0  0  0
 25 26  2  0  0  0
 26 27  1  0  0  0
  4  5  2  0  0  0
  5  6  1  0  0  0
  6  7  1  0  0  0
  7  8  2  0  0  0
  7  9  1  0  0  0
  9 10  1  0  0  0
 10 11  2  0  0  0
 11 12  1  0  0  0
 12 13  2  0  0  0
 13 14  1  0  0  0
 14 15  2  0  0  0
 15 16  1  0  0  0
 33 34  1  0  0  0
 34 35  2  0  0  0
 35 30  1  0  0  0
 16  1  1  0  0  0
 27 23  1  0  0  0
 16  6  2  0  0  0
 14  9  1  0  0  0
  3 17  1  0  0  0
 20 21  1  0  0  0
M  END
> <minimizedAffinity>
-10.09568

> <CNNscore>
0.4350734055

> <CNNaffinity>
7.0100197792

> <CNN_VS>
3.0498731136

> <CNNaffinity_variance>
0.4215444922

$$$$
[H]N=c1c(C(=O)N([H])C([H])([H])c2oc([H])c([H])c2[H])c([H])c2c(=O)n3c([H])c([H])c([H])c([H])c3nc2n1C([H])([H])c1c([H])c([H])c(C([H])([H])[H])c([H])c1[H]


 35 39  0  0  0  0  0  0  0  0999 V2000
   58.3789   -5.1138   -9.7962 N   0  0  0  0  0  0  0  0  0  0  0  0
   58.6234   -4.8320  -11.1044 C   0  0  0  0  0  0  0  0  0  0  0  0
   59.8159   -4.9183  -11.4762 N   0  0  0  0  0  0  0  0  0  0  0  0
   57.6658   -4.4108  -11.9901 C   0  0  0  0  0  0  0  0  0  0  0  0
   56.3679   -4.2657  -11.4889 C   0  0  0  0  0  0  0  0  0  0  0  0
   56.0866   -4.5349  -10.1900 C   0  0  0  0  0  0  0  0  0  0  0  0
   54.8095   -4.3706   -9.7156 C   0  0  0  0  0  0  0  0  0  0  0  0
   53.8760   -3.9883  -10.4624 O   0  0  0  0  0  0  0  0  0  0  0  0
   54.5328   -4.6199   -8.4256 N   0  0  0  0  0  0  0  0  0  0  0  0
   53.2828   -4.4629   -7.9451 C   0  0  0  0  0  0  0  0  0  0  0  0
   52.9516   -4.7025   -6.6462 C   0  0  0  0  0  0  0  0  0  0  0  0
   53.9414   -5.1291   -5.7662 C   0  0  0  0  0  0  0  0  0  0  0  0
   55.2039   -5.2788   -6.2888 C   0  0  0  0  0  0  0  0  0  0  0  0
   55.5208   -5.0316   -7.6068 C   0  0  0  0  0  0  0  0  0  0  0  0
   56.7623   -5.1870   -8.0897 N   0  0  0  0  0  0  0  0  0  0  0  0
   57.1164   -4.9582   -9.3687 C   0  0  0  0  0  0  0  0  0  0  0  0
   60.2856   -4.7770  -12.3365 H   0  0  0  0  0  0  0  0  0  0  0  0
   57.8160   -4.1889  -13.4048 C   0  0  0  0  0  0  0  0  0  0  0  0
   57.1160   -4.9846  -14.1535 O   0  0  0  0  0  0  0  0  0  0  0  0
   58.6234   -3.2334  -14.0468 N   0  0  0  0  0  0  0  0  0  0  0  0
   59.2242   -2.6080  -13.4932 H   0  0  0  0  0  0  0  0  0  0  0  0
   58.6705   -3.1149  -15.4996 C   0  0  0  0  0  0  0  0  0  0  0  0
   57.3284   -3.0583  -16.0956 C   0  0  0  0  0  0  0  0  0  0  0  0
   56.9970   -3.2411  -17.4107 C   0  0  0  0  0  0  0  0  0  0  0  0
   55.6062   -3.0968  -17.5209 C   0  0  0  0  0  0  0  0  0  0  0  0
   55.1847   -2.8321  -16.2422 C   0  0  0  0  0  0  0  0  0  0  0  0
   56.2132   -2.8188  -15.4497 O   0  0  0  0  0  0  0  0  0  0  0  0
   59.4277   -5.5159   -8.9043 C   0  0  0  0  0  0  0  0  0  0  0  0
   63.3308   -9.4409  -10.6462 C   0  0  0  0  0  0  0  0  0  0  0  0
   62.2779   -8.4761  -10.2225 C   0  0  0  0  0  0  0  0  0  0  0  0
   60.9506   -8.7504  -10.2378 C   0  0  0  0  0  0  0  0  0  0  0  0
   60.0065   -7.7932   -9.8211 C   0  0  0  0  0  0  0  0  0  0  0  0
   60.3640   -6.5481   -9.3824 C   0  0  0  0  0  0  0  0  0  0  0  0
   61.7429   -6.2985   -9.3788 C   0  0  0  0  0  0  0  0  0  0  0  0
   62.6789   -7.2389   -9.7892 C   0  0  0  0  0  0  0  0  0  0  0  0
 29 30  1  0  0  0
 30 31  2  0  0  0
 31 32  1  0  0  0
 32 33  2  0  0  0
 33 28  1  0  0  0
 28  1  1  0  0  0
  1  2  1  0  0  0
  2  3  2  0  0  0
  2  4  1  0  0  0
  4 18  1  0  0  0
 18 19  2  0  0  0
 18 20  1  0  0  0
 20 22  1  0  0  0
 22 23  1  0  0  0
 23 24  2  0  0  0
 24 25  1  0  0  0
 25 26  2  0  0  0
 26 27  1  0  0  0
  4  5  2  0  0  0
  5  6  1  0  0  0
  6  7  1  0  0  0
  7  8  2  0  0  0
  7  9  1  0  0  0
  9 10  1  0  0  0
 10 11  2  0  0  0
 11 12  1  0  0  0
 12 13  2  0  0  0
 13 14  1  0  0  0
 14 15  2  0  0  0
 15 16  1  0  0  0
 33 34  1  0  0  0
 34 35  2  0  0  0
 35 30  1  0  0  0
 16  1  1  0  0  0
 27 23  1  0  0  0
 16  6  2  0  0  0
 14  9  1  0  0  0
  3 17  1  0  0  0
 20 21  1  0  0  0
M  END
> <minimizedAffinity>
-6.35131

> <CNNscore>
0.3452014923

> <CNNaffinity>
6.2336130142

> <CNN_VS>
2.1518526077

> <CNNaffinity_variance>
0.2892071605

$$$$
[H]N=c1c(C(=O)N([H])C([H])([H])c2oc([H])c([H])c2[H])c([H])c2c(=O)n3c([H])c([H])c([H])c([H])c3nc2n1C([H])([H])c1c([H])c([H])c(C([H])([H])[H])c([H])c1[H]


 35 39  0  0  0  0  0  0  0  0999 V2000
   58.2365   -4.9775   -9.5451 N   0  0  0  0  0  0  0  0  0  0  0  0
   56.9432   -4.8145   -9.1563 C   0  0  0  0  0  0  0  0  0  0  0  0
   56.6555   -5.2172   -8.0061 N   0  0  0  0  0  0  0  0  0  0  0  0
   55.9586   -4.3043   -9.9620 C   0  0  0  0  0  0  0  0  0  0  0  0
   56.3347   -3.9426  -11.2599 C   0  0  0  0  0  0  0  0  0  0  0  0
   57.6139   -4.0927  -11.6839 C   0  0  0  0  0  0  0  0  0  0  0  0
   57.9574   -3.7460  -12.9664 C   0  0  0  0  0  0  0  0  0  0  0  0
   57.1144   -3.2719  -13.7664 O   0  0  0  0  0  0  0  0  0  0  0  0
   59.2197   -3.9104  -13.3934 N   0  0  0  0  0  0  0  0  0  0  0  0
   59.5722   -3.5744  -14.6508 C   0  0  0  0  0  0  0  0  0  0  0  0
   60.8378   -3.7217  -15.1311 C   0  0  0  0  0  0  0  0  0  0  0  0
   61.8198   -4.2420  -14.2940 C   0  0  0  0  0  0  0  0  0  0  0  0
   61.4266   -4.5739  -13.0193 C   0  0  0  0  0  0  0  0  0  0  0  0
   60.1404   -4.4178  -12.5503 C   0  0  0  0  0  0  0  0  0  0  0  0
   59.7851   -4.7497  -11.3004 N   0  0  0  0  0  0  0  0  0  0  0  0
   58.5422   -4.6136  -10.8002 C   0  0  0  0  0  0  0  0  0  0  0  0
   55.8262   -5.2348   -7.4652 H   0  0  0  0  0  0  0  0  0  0  0  0
   54.5969   -4.0060   -9.6017 C   0  0  0  0  0  0  0  0  0  0  0  0
   53.9108   -3.4116  -10.5290 O   0  0  0  0  0  0  0  0  0  0  0  0
   53.9486   -4.2748   -8.3833 N   0  0  0  0  0  0  0  0  0  0  0  0
   54.4656   -4.7095   -7.6073 H   0  0  0  0  0  0  0  0  0  0  0  0
   52.5513   -3.9222   -8.1593 C   0  0  0  0  0  0  0  0  0  0  0  0
   51.9153   -4.7851   -7.1541 C   0  0  0  0  0  0  0  0  0  0  0  0
   51.2869   -4.3933   -6.0034 C   0  0  0  0  0  0  0  0  0  0  0  0
   50.8328   -5.5505   -5.3537 C   0  0  0  0  0  0  0  0  0  0  0  0
   51.2247   -6.5808   -6.1708 C   0  0  0  0  0  0  0  0  0  0  0  0
   51.8478   -6.0934   -7.2006 O   0  0  0  0  0  0  0  0  0  0  0  0
   59.2184   -5.5517   -8.6713 C   0  0  0  0  0  0  0  0  0  0  0  0
   63.0631   -9.0789  -11.2111 C   0  0  0  0  0  0  0  0  0  0  0  0
   62.1298   -8.1320  -10.5395 C   0  0  0  0  0  0  0  0  0  0  0  0
   62.5032   -6.9285  -10.0401 C   0  0  0  0  0  0  0  0  0  0  0  0
   61.5690   -6.0787   -9.4184 C   0  0  0  0  0  0  0  0  0  0  0  0
   60.2489   -6.4092   -9.2822 C   0  0  0  0  0  0  0  0  0  0  0  0
   59.8973   -7.6590   -9.8098 C   0  0  0  0  0  0  0  0  0  0  0  0
   60.8148   -8.5016  -10.4237 C   0  0  0  0  0  0  0  0  0  0  0  0
 29 30  1  0  0  0
 30 31  2  0  0  0
 31 32  1  0  0  0
 32 33  2  0  0  0
 33 28  1  0  0  0
 28  1  1  0  0  0
  1  2  1  0  0  0
  2  3  2  0  0  0
  2  4  1  0  0  0
  4 18  1  0  0  0
 18 19  2  0  0  0
 18 20  1  0  0  0
 20 22  1  0  0  0
 22 23  1  0  0  0
 23 24  2  0  0  0
 24 25  1  0  0  0
 25 26  2  0  0  0
 26 27  1  0  0  0
  4  5  2  0  0  0
  5  6  1  0  0  0
  6  7  1  0  0  0
  7  8  2  0  0  0
  7  9  1  0  0  0
  9 10  1  0  0  0
 10 11  2  0  0  0
 11 12  1  0  0  0
 12 13  2  0  0  0
 13 14  1  0  0  0
 14 15  2  0  0  0
 15 16  1  0  0  0
 33 34  1  0  0  0
 34 35  2  0  0  0
 35 30  1  0  0  0
 16  1  1  0  0  0
 27 23  1  0  0  0
 16  6  2  0  0  0
 14  9  1  0  0  0
  3 17  1  0  0  0
 20 21  1  0  0  0
M  END
> <minimizedAffinity>
-5.27590

> <CNNscore>
0.3065595329

> <CNNaffinity>
6.2173509598

> <CNN_VS>
1.9059882164

> <CNNaffinity_variance>
0.2023575008

$$$$
[H]N=c1c(C(=O)N([H])C([H])([H])c2oc([H])c([H])c2[H])c([H])c2c(=O)n3c([H])c([H])c([H])c([H])c3nc2n1C([H])([H])c1c([H])c([H])c(C([H])([H])[H])c([H])c1[H]


 35 39  0  0  0  0  0  0  0  0999 V2000
   56.1150   -6.1529   -6.4001 N   0  0  0  0  0  0  0  0  0  0  0  0
   56.4961   -5.7076   -7.6277 C   0  0  0  0  0  0  0  0  0  0  0  0
   55.5815   -5.2902   -8.3741 N   0  0  0  0  0  0  0  0  0  0  0  0
   57.7844   -5.7517   -8.0936 C   0  0  0  0  0  0  0  0  0  0  0  0
   58.7439   -6.2979   -7.2346 C   0  0  0  0  0  0  0  0  0  0  0  0
   58.4012   -6.7543   -6.0045 C   0  0  0  0  0  0  0  0  0  0  0  0
   59.3560   -7.3008   -5.1843 C   0  0  0  0  0  0  0  0  0  0  0  0
   60.5581   -7.3779   -5.5368 O   0  0  0  0  0  0  0  0  0  0  0  0
   59.0152   -7.7691   -3.9729 N   0  0  0  0  0  0  0  0  0  0  0  0
   59.9423   -8.3090   -3.1560 C   0  0  0  0  0  0  0  0  0  0  0  0
   59.6476   -8.7972   -1.9195 C   0  0  0  0  0  0  0  0  0  0  0  0
   58.3323   -8.7414   -1.4690 C   0  0  0  0  0  0  0  0  0  0  0  0
   57.4132   -8.1852   -2.3265 C   0  0  0  0  0  0  0  0  0  0  0  0
   57.7298   -7.6958   -3.5750 C   0  0  0  0  0  0  0  0  0  0  0  0
   56.8116   -7.1573   -4.3909 N   0  0  0  0  0  0  0  0  0  0  0  0
   57.0760   -6.6667   -5.6168 C   0  0  0  0  0  0  0  0  0  0  0  0
   55.5509   -4.9189   -9.2916 H   0  0  0  0  0  0  0  0  0  0  0  0
   58.2890   -5.2143   -9.3304 C   0  0  0  0  0  0  0  0  0  0  0  0
   59.5688   -5.3505   -9.4961 O   0  0  0  0  0  0  0  0  0  0  0  0
   57.5659   -4.5681  -10.3485 N   0  0  0  0  0  0  0  0  0  0  0  0
   56.5558   -4.4043  -10.2413 H   0  0  0  0  0  0  0  0  0  0  0  0
   58.2114   -4.0790  -11.5613 C   0  0  0  0  0  0  0  0  0  0  0  0
   57.3530   -4.2257  -12.7449 C   0  0  0  0  0  0  0  0  0  0  0  0
   57.3323   -3.4298  -13.8579 C   0  0  0  0  0  0  0  0  0  0  0  0
   56.3593   -3.9434  -14.7279 C   0  0  0  0  0  0  0  0  0  0  0  0
   55.8495   -5.0340  -14.0695 C   0  0  0  0  0  0  0  0  0  0  0  0
   56.4524   -5.1608  -12.9264 O   0  0  0  0  0  0  0  0  0  0  0  0
   54.7446   -6.1163   -5.9783 C   0  0  0  0  0  0  0  0  0  0  0  0
   53.4987   -5.0328   -0.4152 C   0  0  0  0  0  0  0  0  0  0  0  0
   53.8748   -5.2688   -1.8371 C   0  0  0  0  0  0  0  0  0  0  0  0
   55.0379   -4.8482   -2.3915 C   0  0  0  0  0  0  0  0  0  0  0  0
   55.3335   -5.1069   -3.7432 C   0  0  0  0  0  0  0  0  0  0  0  0
   54.4796   -5.7872   -4.5669 C   0  0  0  0  0  0  0  0  0  0  0  0
   53.2877   -6.2078   -3.9617 C   0  0  0  0  0  0  0  0  0  0  0  0
   52.9906   -5.9550   -2.6288 C   0  0  0  0  0  0  0  0  0  0  0  0
 29 30  1  0  0  0
 30 31  2  0  0  0
 31 32  1  0  0  0
 32 33  2  0  0  0
 33 28  1  0  0  0
 28  1  1  0  0  0
  1  2  1  0  0  0
  2  3  2  0  0  0
  2  4  1  0  0  0
  4 18  1  0  0  0
 18 19  2  0  0  0
 18 20  1  0  0  0
 20 22  1  0  0  0
 22 23  1  0  0  0
 23 24  2  0  0  0
 24 25  1  0  0  0
 25 26  2  0  0  0
 26 27  1  0  0  0
  4  5  2  0  0  0
  5  6  1  0  0  0
  6  7  1  0  0  0
  7  8  2  0  0  0
  7  9  1  0  0  0
  9 10  1  0  0  0
 10 11  2  0  0  0
 11 12  1  0  0  0
 12 13  2  0  0  0
 13 14  1  0  0  0
 14 15  2  0  0  0
 15 16  1  0  0  0
 33 34  1  0  0  0
 34 35  2  0  0  0
 35 30  1  0  0  0
 16  1  1  0  0  0
 27 23  1  0  0  0
 16  6  2  0  0  0
 14  9  1  0  0  0
  3 17  1  0  0  0
 20 21  1  0  0  0
M  END
> <minimizedAffinity>
-0.68034

> <CNNscore>
0.2962464094

> <CNNaffinity>
5.9353346825

> <CNN_VS>
1.7583216429

> <CNNaffinity_variance>
0.7469034791

$$$$
[H]N=c1c(C(=O)N([H])C([H])([H])c2oc([H])c([H])c2[H])c([H])c2c(=O)n3c([H])c([H])c([H])c([H])c3nc2n1C([H])([H])c1c([H])c([H])c(C([H])([H])[H])c([H])c1[H]


 35 39  0  0  0  0  0  0  0  0999 V2000
   53.9839   -5.8676   -6.4475 N   0  0  0  0  0  0  0  0  0  0  0  0
   52.7026   -5.4795   -6.2064 C   0  0  0  0  0  0  0  0  0  0  0  0
   52.1262   -6.0377   -5.2451 N   0  0  0  0  0  0  0  0  0  0  0  0
   52.0149   -4.5811   -6.9802 C   0  0  0  0  0  0  0  0  0  0  0  0
   52.6956   -4.0513   -8.0815 C   0  0  0  0  0  0  0  0  0  0  0  0
   53.9726   -4.4162   -8.3549 C   0  0  0  0  0  0  0  0  0  0  0  0
   54.6160   -3.8960   -9.4497 C   0  0  0  0  0  0  0  0  0  0  0  0
   54.0556   -3.0677  -10.2082 O   0  0  0  0  0  0  0  0  0  0  0  0
   55.8744   -4.2696   -9.7319 N   0  0  0  0  0  0  0  0  0  0  0  0
   56.5194   -3.7670  -10.8041 C   0  0  0  0  0  0  0  0  0  0  0  0
   57.7946   -4.1137  -11.1326 C   0  0  0  0  0  0  0  0  0  0  0  0
   58.4718   -5.0279  -10.3317 C   0  0  0  0  0  0  0  0  0  0  0  0
   57.7853   -5.5202   -9.2473 C   0  0  0  0  0  0  0  0  0  0  0  0
   56.4944   -5.1576   -8.9301 C   0  0  0  0  0  0  0  0  0  0  0  0
   55.8488   -5.6540   -7.8644 N   0  0  0  0  0  0  0  0  0  0  0  0
   54.5894   -5.3277   -7.5166 C   0  0  0  0  0  0  0  0  0  0  0  0
   51.2244   -5.9673   -4.8422 H   0  0  0  0  0  0  0  0  0  0  0  0
   50.7014   -4.0421   -6.7411 C   0  0  0  0  0  0  0  0  0  0  0  0
   49.7298   -4.7515   -7.2275 O   0  0  0  0  0  0  0  0  0  0  0  0
   50.3659   -2.8575   -6.0619 N   0  0  0  0  0  0  0  0  0  0  0  0
   51.1061   -2.2450   -5.6940 H   0  0  0  0  0  0  0  0  0  0  0  0
   48.9810   -2.4358   -5.8853 C   0  0  0  0  0  0  0  0  0  0  0  0
   48.3171   -3.1555   -4.7895 C   0  0  0  0  0  0  0  0  0  0  0  0
   48.8574   -4.1217   -3.9850 C   0  0  0  0  0  0  0  0  0  0  0  0
   47.8632   -4.5251   -3.0814 C   0  0  0  0  0  0  0  0  0  0  0  0
   46.7708   -3.7615   -3.4075 C   0  0  0  0  0  0  0  0  0  0  0  0
   47.0771   -2.9833   -4.4009 O   0  0  0  0  0  0  0  0  0  0  0  0
   54.6429   -6.8405   -5.6251 C   0  0  0  0  0  0  0  0  0  0  0  0
   56.5241   -4.8316   -0.5163 C   0  0  0  0  0  0  0  0  0  0  0  0
   56.0235   -5.4076   -1.7956 C   0  0  0  0  0  0  0  0  0  0  0  0
   55.3496   -6.5802   -1.8845 C   0  0  0  0  0  0  0  0  0  0  0  0
   54.9010   -7.0676   -3.1264 C   0  0  0  0  0  0  0  0  0  0  0  0
   55.1138   -6.3995   -4.3006 C   0  0  0  0  0  0  0  0  0  0  0  0
   55.8124   -5.1914   -4.1723 C   0  0  0  0  0  0  0  0  0  0  0  0
   56.2577   -4.7059   -2.9497 C   0  0  0  0  0  0  0  0  0  0  0  0
 29 30  1  0  0  0
 30 31  2  0  0  0
 31 32  1  0  0  0
 32 33  2  0  0  0
 33 28  1  0  0  0
 28  1  1  0  0  0
  1  2  1  0  0  0
  2  3  2  0  0  0
  2  4  1  0  0  0
  4 18  1  0  0  0
 18 19  2  0  0  0
 18 20  1  0  0  0
 20 22  1  0  0  0
 22 23  1  0  0  0
 23 24  2  0  0  0
 24 25  1  0  0  0
 25 26  2  0  0  0
 26 27  1  0  0  0
  4  5  2  0  0  0
  5  6  1  0  0  0
  6  7  1  0  0  0
  7  8  2  0  0  0
  7  9  1  0  0  0
  9 10  1  0  0  0
 10 11  2  0  0  0
 11 12  1  0  0  0
 12 13  2  0  0  0
 13 14  1  0  0  0
 14 15  2  0  0  0
 15 16  1  0  0  0
 33 34  1  0  0  0
 34 35  2  0  0  0
 35 30  1  0  0  0
 16  1  1  0  0  0
 27 23  1  0  0  0
 16  6  2  0  0  0
 14  9  1  0  0  0
  3 17  1  0  0  0
 20 21  1  0  0  0
M  END
> <minimizedAffinity>
-8.80400

> <CNNscore>
0.2844314575

> <CNNaffinity>
7.1623620987

> <CNN_VS>
2.0372011662

> <CNNaffinity_variance>
0.4992553592

$$$$
[H]N=c1c(C(=O)N([H])C([H])([H])c2oc([H])c([H])c2[H])c([H])c2c(=O)n3c([H])c([H])c([H])c([H])c3nc2n1C([H])([H])c1c([H])c([H])c(C([H])([H])[H])c([H])c1[H]


 35 39  0  0  0  0  0  0  0  0999 V2000
   58.0432   -3.9549  -12.0463 N   0  0  0  0  0  0  0  0  0  0  0  0
   57.2608   -3.9774  -10.9338 C   0  0  0  0  0  0  0  0  0  0  0  0
   56.1849   -3.3403  -11.0001 N   0  0  0  0  0  0  0  0  0  0  0  0
   57.6133   -4.5925   -9.7607 C   0  0  0  0  0  0  0  0  0  0  0  0
   58.8617   -5.2231   -9.7333 C   0  0  0  0  0  0  0  0  0  0  0  0
   59.6700   -5.2195  -10.8221 C   0  0  0  0  0  0  0  0  0  0  0  0
   60.8974   -5.8308  -10.7680 C   0  0  0  0  0  0  0  0  0  0  0  0
   61.2942   -6.4160   -9.7310 O   0  0  0  0  0  0  0  0  0  0  0  0
   61.7064   -5.8131  -11.8395 N   0  0  0  0  0  0  0  0  0  0  0  0
   62.9152   -6.4094  -11.8014 C   0  0  0  0  0  0  0  0  0  0  0  0
   63.7713   -6.4193  -12.8602 C   0  0  0  0  0  0  0  0  0  0  0  0
   63.3909   -5.7878  -14.0402 C   0  0  0  0  0  0  0  0  0  0  0  0
   62.1529   -5.1903  -14.0448 C   0  0  0  0  0  0  0  0  0  0  0  0
   61.2994   -5.1904  -12.9631 C   0  0  0  0  0  0  0  0  0  0  0  0
   60.0958   -4.5995  -12.9962 N   0  0  0  0  0  0  0  0  0  0  0  0
   59.2302   -4.5758  -11.9649 C   0  0  0  0  0  0  0  0  0  0  0  0
   55.4364   -3.1769  -10.3727 H   0  0  0  0  0  0  0  0  0  0  0  0
   56.8094   -4.7501   -8.5766 C   0  0  0  0  0  0  0  0  0  0  0  0
   56.7846   -5.9556   -8.0972 O   0  0  0  0  0  0  0  0  0  0  0  0
   56.0618   -3.7668   -7.9048 N   0  0  0  0  0  0  0  0  0  0  0  0
   56.0220   -2.8066   -8.2720 H   0  0  0  0  0  0  0  0  0  0  0  0
   55.2955   -4.0693   -6.7013 C   0  0  0  0  0  0  0  0  0  0  0  0
   53.9640   -4.6079   -7.0119 C   0  0  0  0  0  0  0  0  0  0  0  0
   53.1767   -4.3027   -8.0888 C   0  0  0  0  0  0  0  0  0  0  0  0
   51.9959   -5.0513   -7.9759 C   0  0  0  0  0  0  0  0  0  0  0  0
   52.1531   -5.7705   -6.8180 C   0  0  0  0  0  0  0  0  0  0  0  0
   53.3054   -5.4836   -6.2923 O   0  0  0  0  0  0  0  0  0  0  0  0
   57.6395   -3.2634  -13.2363 C   0  0  0  0  0  0  0  0  0  0  0  0
   61.4482   -3.3504  -17.6136 C   0  0  0  0  0  0  0  0  0  0  0  0
   60.4268   -3.3669  -16.5295 C   0  0  0  0  0  0  0  0  0  0  0  0
   59.3030   -4.1240  -16.5608 C   0  0  0  0  0  0  0  0  0  0  0  0
   58.3780   -4.0949  -15.5002 C   0  0  0  0  0  0  0  0  0  0  0  0
   58.5530   -3.3139  -14.3911 C   0  0  0  0  0  0  0  0  0  0  0  0
   59.7247   -2.5452  -14.3913 C   0  0  0  0  0  0  0  0  0  0  0  0
   60.6406   -2.5696  -15.4350 C   0  0  0  0  0  0  0  0  0  0  0  0
 29 30  1  0  0  0
 30 31  2  0  0  0
 31 32  1  0  0  0
 32 33  2  0  0  0
 33 28  1  0  0  0
 28  1  1  0  0  0
  1  2  1  0  0  0
  2  3  2  0  0  0
  2  4  1  0  0  0
  4 18  1  0  0  0
 18 19  2  0  0  0
 18 20  1  0  0  0
 20 22  1  0  0  0
 22 23  1  0  0  0
 23 24  2  0  0  0
 24 25  1  0  0  0
 25 26  2  0  0  0
 26 27  1  0  0  0
  4  5  2  0  0  0
  5  6  1  0  0  0
  6  7  1  0  0  0
  7  8  2  0  0  0
  7  9  1  0  0  0
  9 10  1  0  0  0
 10 11  2  0  0  0
 11 12  1  0  0  0
 12 13  2  0  0  0
 13 14  1  0  0  0
 14 15  2  0  0  0
 15 16  1  0  0  0
 33 34  1  0  0  0
 34 35  2  0  0  0
 35 30  1  0  0  0
 16  1  1  0  0  0
 27 23  1  0  0  0
 16  6  2  0  0  0
 14  9  1  0  0  0
  3 17  1  0  0  0
 20 21  1  0  0  0
M  END
> <minimizedAffinity>
-0.79779

> <CNNscore>
0.2826508880

> <CNNaffinity>
5.6943316460

> <CNN_VS>
1.6095079184

> <CNNaffinity_variance>
0.3845241666

$$$$
[H]/C(=C(\[H])C([H])([H])C([H])([H])N([H])C(=O)/C([H])=C([H])/C([H])=C([H])/C([H])=C(\[H])c1sc([H])c([H])c1[H])C([H])([H])OC(=O)C([H])([H])C([H])(C([H])([H])[H])C([H])([H])[H]


 27 27  0  0  0  0  0  0  0  0999 V2000
   54.2544   -7.9691   -1.9419 N   0  0  0  0  0  0  0  0  0  0  0  0
   55.0030   -6.8645   -2.3883 C   0  0  0  0  0  0  0  0  0  0  0  0
   55.3886   -6.0158   -1.5462 O   0  0  0  0  0  0  0  0  0  0  0  0
   53.9312   -8.6819   -2.6388 H   0  0  0  0  0  0  0  0  0  0  0  0
   55.3343   -6.6882   -3.7809 C   0  0  0  0  0  0  0  0  0  0  0  0
   54.6073   -6.0367   -4.6423 C   0  0  0  0  0  0  0  0  0  0  0  0
   54.9982   -5.8912   -6.0488 C   0  0  0  0  0  0  0  0  0  0  0  0
   54.5264   -4.9646   -6.8322 C   0  0  0  0  0  0  0  0  0  0  0  0
   54.9374   -4.8409   -8.2446 C   0  0  0  0  0  0  0  0  0  0  0  0
   56.1884   -4.6013   -8.5637 C   0  0  0  0  0  0  0  0  0  0  0  0
   56.5893   -4.4792   -9.9863 C   0  0  0  0  0  0  0  0  0  0  0  0
   55.8249   -4.0497  -11.0373 C   0  0  0  0  0  0  0  0  0  0  0  0
   56.4028   -4.0211  -12.2490 C   0  0  0  0  0  0  0  0  0  0  0  0
   57.7089   -4.4245  -12.3286 C   0  0  0  0  0  0  0  0  0  0  0  0
   58.0875   -4.8289  -10.7195 S   0  0  0  0  0  0  0  0  0  0  0  0
   53.8971   -8.1869   -0.5615 C   0  0  0  0  0  0  0  0  0  0  0  0
   52.7443   -7.3186   -0.0934 C   0  0  0  0  0  0  0  0  0  0  0  0
   50.8381   -7.0225   -1.6397 C   0  0  0  0  0  0  0  0  0  0  0  0
   51.4781   -7.7162   -0.7356 C   0  0  0  0  0  0  0  0  0  0  0  0
   51.3252   -5.7309   -2.1287 C   0  0  0  0  0  0  0  0  0  0  0  0
   50.9850   -5.5748   -3.4884 O   0  0  0  0  0  0  0  0  0  0  0  0
   49.8849   -4.8374   -3.8534 C   0  0  0  0  0  0  0  0  0  0  0  0
   48.8306   -4.9241   -3.1909 O   0  0  0  0  0  0  0  0  0  0  0  0
   49.8963   -3.9189   -5.0316 C   0  0  0  0  0  0  0  0  0  0  0  0
   50.3249   -5.7223   -6.7123 C   0  0  0  0  0  0  0  0  0  0  0  0
   50.8317   -4.4601   -6.0909 C   0  0  0  0  0  0  0  0  0  0  0  0
   51.1168   -3.4510   -7.1637 C   0  0  0  0  0  0  0  0  0  0  0  0
 25 26  1  0  0  0
 26 27  1  0  0  0
 26 24  1  0  0  0
 24 22  1  0  0  0
 22 23  2  0  0  0
 22 21  1  0  0  0
 21 20  1  0  0  0
 20 18  1  0  0  0
 18 19  2  0  0  0
 19 17  1  0  0  0
 17 16  1  0  0  0
 16  1  1  0  0  0
  1  2  1  0  0  0
  2  3  2  0  0  0
  2  5  1  0  0  0
  5  6  2  0  0  0
  6  7  1  0  0  0
  7  8  2  0  0  0
  8  9  1  0  0  0
  9 10  2  0  0  0
 10 11  1  0  0  0
 11 12  2  0  0  0
 12 13  1  0  0  0
 13 14  2  0  0  0
 14 15  1  0  0  0
 15 11  1  0  0  0
  1  4  1  0  0  0
M  END
> <minimizedAffinity>
-7.02218

> <CNNscore>
0.4954283535

> <CNNaffinity>
6.7195792198

> <CNN_VS>
3.3290700912

> <CNNaffinity_variance>
0.0347412750

$$$$
[H]/C(=C(\[H])C([H])([H])C([H])([H])N([H])C(=O)/C([H])=C([H])/C([H])=C([H])/C([H])=C(\[H])c1sc([H])c([H])c1[H])C([H])([H])OC(=O)C([H])([H])C([H])(C([H])([H])[H])C([H])([H])[H]


 27 27  0  0  0  0  0  0  0  0999 V2000
   55.5719   -7.4567   -3.7426 N   0  0  0  0  0  0  0  0  0  0  0  0
   55.8399   -6.1394   -4.1580 C   0  0  0  0  0  0  0  0  0  0  0  0
   55.5870   -5.1941   -3.3702 O   0  0  0  0  0  0  0  0  0  0  0  0
   55.7823   -8.2501   -4.3940 H   0  0  0  0  0  0  0  0  0  0  0  0
   56.3945   -5.8543   -5.4585 C   0  0  0  0  0  0  0  0  0  0  0  0
   55.6951   -5.5921   -6.5248 C   0  0  0  0  0  0  0  0  0  0  0  0
   56.3183   -5.3092   -7.8225 C   0  0  0  0  0  0  0  0  0  0  0  0
   56.0304   -4.2644   -8.5438 C   0  0  0  0  0  0  0  0  0  0  0  0
   56.6731   -4.0038   -9.8469 C   0  0  0  0  0  0  0  0  0  0  0  0
   56.0587   -4.2926  -10.9710 C   0  0  0  0  0  0  0  0  0  0  0  0
   56.7144   -4.0261  -12.2741 C   0  0  0  0  0  0  0  0  0  0  0  0
   56.1161   -3.8640  -13.4944 C   0  0  0  0  0  0  0  0  0  0  0  0
   56.9160   -3.6290  -14.5470 C   0  0  0  0  0  0  0  0  0  0  0  0
   58.2632   -3.5717  -14.3083 C   0  0  0  0  0  0  0  0  0  0  0  0
   58.3709   -3.8460  -12.6322 S   0  0  0  0  0  0  0  0  0  0  0  0
   55.0162   -7.7908   -2.4541 C   0  0  0  0  0  0  0  0  0  0  0  0
   53.5115   -7.9835   -2.4786 C   0  0  0  0  0  0  0  0  0  0  0  0
   52.3864   -6.3628   -0.9884 C   0  0  0  0  0  0  0  0  0  0  0  0
   52.8941   -7.5460   -1.2131 C   0  0  0  0  0  0  0  0  0  0  0  0
   52.3762   -5.3071   -2.0034 C   0  0  0  0  0  0  0  0  0  0  0  0
   51.0561   -4.8574   -2.2127 O   0  0  0  0  0  0  0  0  0  0  0  0
   50.4073   -5.1206   -3.3946 C   0  0  0  0  0  0  0  0  0  0  0  0
   49.1645   -5.0222   -3.4570 O   0  0  0  0  0  0  0  0  0  0  0  0
   51.1389   -5.5276   -4.6319 C   0  0  0  0  0  0  0  0  0  0  0  0
   50.8425   -3.8559   -6.4699 C   0  0  0  0  0  0  0  0  0  0  0  0
   50.3414   -5.1223   -5.8525 C   0  0  0  0  0  0  0  0  0  0  0  0
   50.3027   -6.2058   -6.8892 C   0  0  0  0  0  0  0  0  0  0  0  0
 25 26  1  0  0  0
 26 27  1  0  0  0
 26 24  1  0  0  0
 24 22  1  0  0  0
 22 23  2  0  0  0
 22 21  1  0  0  0
 21 20  1  0  0  0
 20 18  1  0  0  0
 18 19  2  0  0  0
 19 17  1  0  0  0
 17 16  1  0  0  0
 16  1  1  0  0  0
  1  2  1  0  0  0
  2  3  2  0  0  0
  2  5  1  0  0  0
  5  6  2  0  0  0
  6  7  1  0  0  0
  7  8  2  0  0  0
  8  9  1  0  0  0
  9 10  2  0  0  0
 10 11  1  0  0  0
 11 12  2  0  0  0
 12 13  1  0  0  0
 13 14  2  0  0  0
 14 15  1  0  0  0
 15 11  1  0  0  0
  1  4  1  0  0  0
M  END
> <minimizedAffinity>
-6.29956

> <CNNscore>
0.3674888313

> <CNNaffinity>
6.4467253685

> <CNN_VS>
2.3690996170

> <CNNaffinity_variance>
0.3169240355

$$$$
[H]/C(=C(\[H])C([H])([H])C([H])([H])N([H])C(=O)/C([H])=C([H])/C([H])=C([H])/C([H])=C(\[H])c1sc([H])c([H])c1[H])C([H])([H])OC(=O)C([H])([H])C([H])(C([H])([H])[H])C([H])([H])[H]


 27 27  0  0  0  0  0  0  0  0999 V2000
   52.0913   -3.5719   -7.5605 N   0  0  0  0  0  0  0  0  0  0  0  0
   53.1154   -3.3441   -8.4982 C   0  0  0  0  0  0  0  0  0  0  0  0
   53.0141   -2.3641   -9.2776 O   0  0  0  0  0  0  0  0  0  0  0  0
   52.1704   -4.3865   -6.9061 H   0  0  0  0  0  0  0  0  0  0  0  0
   54.2694   -4.2052   -8.5820 C   0  0  0  0  0  0  0  0  0  0  0  0
   55.5035   -3.7933   -8.6304 C   0  0  0  0  0  0  0  0  0  0  0  0
   56.6377   -4.7201   -8.7152 C   0  0  0  0  0  0  0  0  0  0  0  0
   57.3732   -4.8578   -9.7805 C   0  0  0  0  0  0  0  0  0  0  0  0
   58.5094   -5.7984   -9.8386 C   0  0  0  0  0  0  0  0  0  0  0  0
   59.5275   -5.6766   -9.0183 C   0  0  0  0  0  0  0  0  0  0  0  0
   60.6633   -6.6278   -9.0862 C   0  0  0  0  0  0  0  0  0  0  0  0
   60.6671   -7.8903   -9.6149 C   0  0  0  0  0  0  0  0  0  0  0  0
   61.8208   -8.5757   -9.5661 C   0  0  0  0  0  0  0  0  0  0  0  0
   62.8953   -7.9514   -8.9911 C   0  0  0  0  0  0  0  0  0  0  0  0
   62.2659   -6.4364   -8.5388 S   0  0  0  0  0  0  0  0  0  0  0  0
   50.9186   -2.7406   -7.4405 C   0  0  0  0  0  0  0  0  0  0  0  0
   49.7010   -3.4869   -6.9283 C   0  0  0  0  0  0  0  0  0  0  0  0
   49.3915   -3.7447   -4.4889 C   0  0  0  0  0  0  0  0  0  0  0  0
   49.3191   -3.0287   -5.5799 C   0  0  0  0  0  0  0  0  0  0  0  0
   49.8754   -5.1269   -4.4875 C   0  0  0  0  0  0  0  0  0  0  0  0
   51.2293   -5.1596   -4.0943 O   0  0  0  0  0  0  0  0  0  0  0  0
   52.1583   -5.8401   -4.8433 C   0  0  0  0  0  0  0  0  0  0  0  0
   51.8965   -6.1549   -6.0224 O   0  0  0  0  0  0  0  0  0  0  0  0
   53.4938   -6.2271   -4.2969 C   0  0  0  0  0  0  0  0  0  0  0  0
   55.6714   -5.0898   -4.7717 C   0  0  0  0  0  0  0  0  0  0  0  0
   54.5680   -5.9360   -5.3222 C   0  0  0  0  0  0  0  0  0  0  0  0
   55.1428   -7.1898   -5.9120 C   0  0  0  0  0  0  0  0  0  0  0  0
 25 26  1  0  0  0
 26 27  1  0  0  0
 26 24  1  0  0  0
 24 22  1  0  0  0
 22 23  2  0  0  0
 22 21  1  0  0  0
 21 20  1  0  0  0
 20 18  1  0  0  0
 18 19  2  0  0  0
 19 17  1  0  0  0
 17 16  1  0  0  0
 16  1  1  0  0  0
  1  2  1  0  0  0
  2  3  2  0  0  0
  2  5  1  0  0  0
  5  6  2  0  0  0
  6  7  1  0  0  0
  7  8  2  0  0  0
  8  9  1  0  0  0
  9 10  2  0  0  0
 10 11  1  0  0  0
 11 12  2  0  0  0
 12 13  1  0  0  0
 13 14  2  0  0  0
 14 15  1  0  0  0
 15 11  1  0  0  0
  1  4  1  0  0  0
M  END
> <minimizedAffinity>
-7.48010

> <CNNscore>
0.3210058808

> <CNNaffinity>
6.0003356934

> <CNN_VS>
1.9261430502

> <CNNaffinity_variance>
0.4953543246

$$$$
[H]/C(=C(\[H])C([H])([H])C([H])([H])N([H])C(=O)/C([H])=C([H])/C([H])=C([H])/C([H])=C(\[H])c1sc([H])c([H])c1[H])C([H])([H])OC(=O)C([H])([H])C([H])(C([H])([H])[H])C([H])([H])[H]


 27 27  0  0  0  0  0  0  0  0999 V2000
   53.1440   -3.9665   -7.9140 N   0  0  0  0  0  0  0  0  0  0  0  0
   53.5798   -3.5369   -9.1810 C   0  0  0  0  0  0  0  0  0  0  0  0
   52.7800   -2.9006   -9.9115 O   0  0  0  0  0  0  0  0  0  0  0  0
   53.8067   -4.4961   -7.2988 H   0  0  0  0  0  0  0  0  0  0  0  0
   54.9146   -3.8095   -9.6543 C   0  0  0  0  0  0  0  0  0  0  0  0
   55.7992   -4.5219   -9.0178 C   0  0  0  0  0  0  0  0  0  0  0  0
   57.1438   -4.7645   -9.5522 C   0  0  0  0  0  0  0  0  0  0  0  0
   58.0665   -5.4151   -8.9040 C   0  0  0  0  0  0  0  0  0  0  0  0
   59.4121   -5.6452   -9.4656 C   0  0  0  0  0  0  0  0  0  0  0  0
   60.3609   -6.1906   -8.7399 C   0  0  0  0  0  0  0  0  0  0  0  0
   61.7088   -6.4169   -9.3152 C   0  0  0  0  0  0  0  0  0  0  0  0
   62.0206   -6.7967  -10.5927 C   0  0  0  0  0  0  0  0  0  0  0  0
   63.3213   -6.9420  -10.8928 C   0  0  0  0  0  0  0  0  0  0  0  0
   64.2248   -6.6970   -9.8935 C   0  0  0  0  0  0  0  0  0  0  0  0
   63.2368   -6.2744   -8.5739 S   0  0  0  0  0  0  0  0  0  0  0  0
   51.8195   -3.7198   -7.3987 C   0  0  0  0  0  0  0  0  0  0  0  0
   51.4738   -4.5727   -6.1925 C   0  0  0  0  0  0  0  0  0  0  0  0
   49.6810   -4.4011   -4.4986 C   0  0  0  0  0  0  0  0  0  0  0  0
   50.0944   -4.3220   -5.7360 C   0  0  0  0  0  0  0  0  0  0  0  0
   50.5731   -4.7603   -3.3941 C   0  0  0  0  0  0  0  0  0  0  0  0
   50.7202   -6.1616   -3.3341 O   0  0  0  0  0  0  0  0  0  0  0  0
   51.7899   -6.7247   -2.6817 C   0  0  0  0  0  0  0  0  0  0  0  0
   52.8818   -6.8523   -3.2730 O   0  0  0  0  0  0  0  0  0  0  0  0
   51.7010   -7.2003   -1.2683 C   0  0  0  0  0  0  0  0  0  0  0  0
   52.8855   -8.8650    0.1760 C   0  0  0  0  0  0  0  0  0  0  0  0
   52.2760   -8.5960   -1.1628 C   0  0  0  0  0  0  0  0  0  0  0  0
   51.2578   -9.6530   -1.4730 C   0  0  0  0  0  0  0  0  0  0  0  0
 25 26  1  0  0  0
 26 27  1  0  0  0
 26 24  1  0  0  0
 24 22  1  0  0  0
 22 23  2  0  0  0
 22 21  1  0  0  0
 21 20  1  0  0  0
 20 18  1  0  0  0
 18 19  2  0  0  0
 19 17  1  0  0  0
 17 16  1  0  0  0
 16  1  1  0  0  0
  1  2  1  0  0  0
  2  3  2  0  0  0
  2  5  1  0  0  0
  5  6  2  0  0  0
  6  7  1  0  0  0
  7  8  2  0  0  0
  8  9  1  0  0  0
  9 10  2  0  0  0
 10 11  1  0  0  0
 11 12  2  0  0  0
 12 13  1  0  0  0
 13 14  2  0  0  0
 14 15  1  0  0  0
 15 11  1  0  0  0
  1  4  1  0  0  0
M  END
> <minimizedAffinity>
-6.71570

> <CNNscore>
0.2997617424

> <CNNaffinity>
5.8603763580

> <CNN_VS>
1.7567166090

> <CNNaffinity_variance>
0.1588176787

$$$$
[H]/C(=C(\[H])C([H])([H])C([H])([H])N([H])C(=O)/C([H])=C([H])/C([H])=C([H])/C([H])=C(\[H])c1sc([H])c([H])c1[H])C([H])([H])OC(=O)C([H])([H])C([H])(C([H])([H])[H])C([H])([H])[H]


 27 27  0  0  0  0  0  0  0  0999 V2000
   54.7629   -5.8972   -6.7093 N   0  0  0  0  0  0  0  0  0  0  0  0
   55.6098   -4.8429   -7.0981 C   0  0  0  0  0  0  0  0  0  0  0  0
   56.0052   -4.0317   -6.2241 O   0  0  0  0  0  0  0  0  0  0  0  0
   54.4310   -6.5786   -7.4329 H   0  0  0  0  0  0  0  0  0  0  0  0
   56.0299   -4.6759   -8.4676 C   0  0  0  0  0  0  0  0  0  0  0  0
   57.2171   -4.9578   -8.9217 C   0  0  0  0  0  0  0  0  0  0  0  0
   57.5854   -4.7660  -10.3289 C   0  0  0  0  0  0  0  0  0  0  0  0
   56.8923   -4.0415  -11.1592 C   0  0  0  0  0  0  0  0  0  0  0  0
   57.2860   -3.8652  -12.5710 C   0  0  0  0  0  0  0  0  0  0  0  0
   56.3837   -3.8479  -13.5249 C   0  0  0  0  0  0  0  0  0  0  0  0
   56.7914   -3.6699  -14.9396 C   0  0  0  0  0  0  0  0  0  0  0  0
   56.0369   -3.8846  -16.0613 C   0  0  0  0  0  0  0  0  0  0  0  0
   56.6193   -3.6557  -17.2493 C   0  0  0  0  0  0  0  0  0  0  0  0
   57.9196   -3.2265  -17.2360 C   0  0  0  0  0  0  0  0  0  0  0  0
   58.2867   -3.1564  -15.5758 S   0  0  0  0  0  0  0  0  0  0  0  0
   54.3147   -6.1036   -5.3538 C   0  0  0  0  0  0  0  0  0  0  0  0
   52.9267   -5.5517   -5.0877 C   0  0  0  0  0  0  0  0  0  0  0  0
   51.2136   -5.8746   -3.3344 C   0  0  0  0  0  0  0  0  0  0  0  0
   52.4564   -5.9113   -3.7373 C   0  0  0  0  0  0  0  0  0  0  0  0
   50.1163   -5.4572   -4.2099 C   0  0  0  0  0  0  0  0  0  0  0  0
   49.7930   -4.1072   -3.9615 O   0  0  0  0  0  0  0  0  0  0  0  0
   49.2891   -3.3135   -4.9631 C   0  0  0  0  0  0  0  0  0  0  0  0
   48.6011   -2.3123   -4.6764 O   0  0  0  0  0  0  0  0  0  0  0  0
   49.5335   -3.6027   -6.4083 C   0  0  0  0  0  0  0  0  0  0  0  0
   51.6793   -3.6092   -7.6952 C   0  0  0  0  0  0  0  0  0  0  0  0
   50.7136   -2.7918   -6.8980 C   0  0  0  0  0  0  0  0  0  0  0  0
   50.2867   -1.5967   -7.6978 C   0  0  0  0  0  0  0  0  0  0  0  0
 25 26  1  0  0  0
 26 27  1  0  0  0
 26 24  1  0  0  0
 24 22  1  0  0  0
 22 23  2  0  0  0
 22 21  1  0  0  0
 21 20  1  0  0  0
 20 18  1  0  0  0
 18 19  2  0  0  0
 19 17  1  0  0  0
 17 16  1  0  0  0
 16  1  1  0  0  0
  1  2  1  0  0  0
  2  3  2  0  0  0
  2  5  1  0  0  0
  5  6  2  0  0  0
  6  7  1  0  0  0
  7  8  2  0  0  0
  8  9  1  0  0  0
  9 10  2  0  0  0
 10 11  1  0  0  0
 11 12  2  0  0  0
 12 13  1  0  0  0
 13 14  2  0  0  0
 14 15  1  0  0  0
 15 11  1  0  0  0
  1  4  1  0  0  0
M  END
> <minimizedAffinity>
-7.42572

> <CNNscore>
0.2996942103

> <CNNaffinity>
6.0455389023

> <CNN_VS>
1.8118129969

> <CNNaffinity_variance>
0.1936321110

$$$$
[H]/C(=C(\[H])C([H])([H])C([H])([H])N([H])C(=O)/C([H])=C([H])/C([H])=C([H])/C([H])=C(\[H])c1sc([H])c([H])c1[H])C([H])([H])OC(=O)C([H])([H])C([H])(C([H])([H])[H])C([H])([H])[H]


 27 27  0  0  0  0  0  0  0  0999 V2000
   54.5872   -5.3954   -3.3233 N   0  0  0  0  0  0  0  0  0  0  0  0
   54.6578   -6.4273   -4.2773 C   0  0  0  0  0  0  0  0  0  0  0  0
   54.4479   -7.6089   -3.9060 O   0  0  0  0  0  0  0  0  0  0  0  0
   54.7593   -4.4073   -3.6265 H   0  0  0  0  0  0  0  0  0  0  0  0
   54.9635   -6.1586   -5.6609 C   0  0  0  0  0  0  0  0  0  0  0  0
   55.6244   -5.1221   -6.0895 C   0  0  0  0  0  0  0  0  0  0  0  0
   55.9047   -4.9034   -7.5129 C   0  0  0  0  0  0  0  0  0  0  0  0
   55.1866   -4.1296   -8.2747 C   0  0  0  0  0  0  0  0  0  0  0  0
   55.4914   -3.9272   -9.7048 C   0  0  0  0  0  0  0  0  0  0  0  0
   56.6449   -4.3026  -10.2075 C   0  0  0  0  0  0  0  0  0  0  0  0
   56.9396   -4.0941  -11.6459 C   0  0  0  0  0  0  0  0  0  0  0  0
   56.0477   -4.0294  -12.6821 C   0  0  0  0  0  0  0  0  0  0  0  0
   56.5461   -3.8318  -13.9133 C   0  0  0  0  0  0  0  0  0  0  0  0
   57.9054   -3.7117  -14.0258 C   0  0  0  0  0  0  0  0  0  0  0  0
   58.4426   -3.8775  -12.4196 S   0  0  0  0  0  0  0  0  0  0  0  0
   54.2874   -5.6151   -1.9295 C   0  0  0  0  0  0  0  0  0  0  0  0
   52.9116   -5.1205   -1.5239 C   0  0  0  0  0  0  0  0  0  0  0  0
   51.0593   -6.2672   -2.6930 C   0  0  0  0  0  0  0  0  0  0  0  0
   51.8927   -6.1731   -1.6906 C   0  0  0  0  0  0  0  0  0  0  0  0
   51.0462   -5.3042   -3.7963 C   0  0  0  0  0  0  0  0  0  0  0  0
   50.3989   -5.8675   -4.9155 O   0  0  0  0  0  0  0  0  0  0  0  0
   50.9011   -5.6811   -6.1804 C   0  0  0  0  0  0  0  0  0  0  0  0
   50.6759   -6.5275   -7.0698 O   0  0  0  0  0  0  0  0  0  0  0  0
   51.7209   -4.4864   -6.5443 C   0  0  0  0  0  0  0  0  0  0  0  0
   49.9351   -2.7339   -6.5490 C   0  0  0  0  0  0  0  0  0  0  0  0
   50.8911   -3.5328   -7.3761 C   0  0  0  0  0  0  0  0  0  0  0  0
   51.7421   -2.6075   -8.1947 C   0  0  0  0  0  0  0  0  0  0  0  0
 25 26  1  0  0  0
 26 27  1  0  0  0
 26 24  1  0  0  0
 24 22  1  0  0  0
 22 23  2  0  0  0
 22 21  1  0  0  0
 21 20  1  0  0  0
 20 18  1  0  0  0
 18 19  2  0  0  0
 19 17  1  0  0  0
 17 16  1  0  0  0
 16  1  1  0  0  0
  1  2  1  0  0  0
  2  3  2  0  0  0
  2  5  1  0  0  0
  5  6  2  0  0  0
  6  7  1  0  0  0
  7  8  2  0  0  0
  8  9  1  0  0  0
  9 10  2  0  0  0
 10 11  1  0  0  0
 11 12  2  0  0  0
 12 13  1  0  0  0
 13 14  2  0  0  0
 14 15  1  0  0  0
 15 11  1  0  0  0
  1  4  1  0  0  0
M  END
> <minimizedAffinity>
-7.30845

> <CNNscore>
0.2924323380

> <CNNaffinity>
6.2979521751

> <CNN_VS>
1.8417248726

> <CNNaffinity_variance>
0.3713137805

$$$$
[H]/C(=C(\[H])C([H])([H])C([H])([H])N([H])C(=O)/C([H])=C([H])/C([H])=C([H])/C([H])=C(\[H])c1sc([H])c([H])c1[H])C([H])([H])OC(=O)C([H])([H])C([H])(C([H])([H])[H])C([H])([H])[H]


 27 27  0  0  0  0  0  0  0  0999 V2000
   54.4303   -6.2853   -4.9432 N   0  0  0  0  0  0  0  0  0  0  0  0
   55.5772   -5.4928   -5.1341 C   0  0  0  0  0  0  0  0  0  0  0  0
   56.2477   -5.1482   -4.1292 O   0  0  0  0  0  0  0  0  0  0  0  0
   53.8675   -6.5779   -5.7773 H   0  0  0  0  0  0  0  0  0  0  0  0
   55.9955   -5.0717   -6.4485 C   0  0  0  0  0  0  0  0  0  0  0  0
   55.3704   -4.1984   -7.1845 C   0  0  0  0  0  0  0  0  0  0  0  0
   55.8463   -3.8100   -8.5168 C   0  0  0  0  0  0  0  0  0  0  0  0
   55.9068   -4.6319   -9.5245 C   0  0  0  0  0  0  0  0  0  0  0  0
   56.3901   -4.2143  -10.8553 C   0  0  0  0  0  0  0  0  0  0  0  0
   57.6413   -4.4018  -11.2072 C   0  0  0  0  0  0  0  0  0  0  0  0
   58.1151   -3.9782  -12.5470 C   0  0  0  0  0  0  0  0  0  0  0  0
   59.4047   -3.7507  -12.9453 C   0  0  0  0  0  0  0  0  0  0  0  0
   59.5990   -3.3709  -14.2185 C   0  0  0  0  0  0  0  0  0  0  0  0
   58.4887   -3.2440  -15.0097 C   0  0  0  0  0  0  0  0  0  0  0  0
   57.2156   -3.6561  -13.9582 S   0  0  0  0  0  0  0  0  0  0  0  0
   53.9718   -6.7286   -3.6494 C   0  0  0  0  0  0  0  0  0  0  0  0
   52.9495   -5.7998   -3.0217 C   0  0  0  0  0  0  0  0  0  0  0  0
   50.5047   -6.0239   -2.7288 C   0  0  0  0  0  0  0  0  0  0  0  0
   51.7120   -6.5215   -2.6729 C   0  0  0  0  0  0  0  0  0  0  0  0
   50.2414   -4.6486   -3.1576 C   0  0  0  0  0  0  0  0  0  0  0  0
   49.3867   -4.6524   -4.2794 O   0  0  0  0  0  0  0  0  0  0  0  0
   49.3053   -3.5535   -5.0997 C   0  0  0  0  0  0  0  0  0  0  0  0
   48.9360   -2.4560   -4.6340 O   0  0  0  0  0  0  0  0  0  0  0  0
   49.6459   -3.6169   -6.5529 C   0  0  0  0  0  0  0  0  0  0  0  0
   51.7690   -4.9231   -6.7695 C   0  0  0  0  0  0  0  0  0  0  0  0
   51.1482   -3.5633   -6.7272 C   0  0  0  0  0  0  0  0  0  0  0  0
   51.5495   -2.7895   -7.9480 C   0  0  0  0  0  0  0  0  0  0  0  0
 25 26  1  0  0  0
 26 27  1  0  0  0
 26 24  1  0  0  0
 24 22  1  0  0  0
 22 23  2  0  0  0
 22 21  1  0  0  0
 21 20  1  0  0  0
 20 18  1  0  0  0
 18 19  2  0  0  0
 19 17  1  0  0  0
 17 16  1  0  0  0
 16  1  1  0  0  0
  1  2  1  0  0  0
  2  3  2  0  0  0
  2  5  1  0  0  0
  5  6  2  0  0  0
  6  7  1  0  0  0
  7  8  2  0  0  0
  8  9  1  0  0  0
  9 10  2  0  0  0
 10 11  1  0  0  0
 11 12  2  0  0  0
 12 13  1  0  0  0
 13 14  2  0  0  0
 14 15  1  0  0  0
 15 11  1  0  0  0
  1  4  1  0  0  0
M  END
> <minimizedAffinity>
-6.84849

> <CNNscore>
0.2831330895

> <CNNaffinity>
6.3238096237

> <CNN_VS>
1.7904797792

> <CNNaffinity_variance>
0.2499943674

$$$$
[H]/C(=C(\[H])C([H])([H])C([H])([H])N([H])C(=O)/C([H])=C([H])/C([H])=C([H])/C([H])=C(\[H])c1sc([H])c([H])c1[H])C([H])([H])OC(=O)C([H])([H])C([H])(C([H])([H])[H])C([H])([H])[H]


 27 27  0  0  0  0  0  0  0  0999 V2000
   53.9836   -4.1454   -8.9055 N   0  0  0  0  0  0  0  0  0  0  0  0
   55.3216   -4.2413   -9.3301 C   0  0  0  0  0  0  0  0  0  0  0  0
   56.2240   -4.3538   -8.4635 O   0  0  0  0  0  0  0  0  0  0  0  0
   53.2257   -4.0533   -9.6233 H   0  0  0  0  0  0  0  0  0  0  0  0
   55.6754   -4.2135  -10.7280 C   0  0  0  0  0  0  0  0  0  0  0  0
   56.8915   -4.1381  -11.1867 C   0  0  0  0  0  0  0  0  0  0  0  0
   57.1887   -4.1137  -12.6232 C   0  0  0  0  0  0  0  0  0  0  0  0
   56.3281   -3.7441  -13.5274 C   0  0  0  0  0  0  0  0  0  0  0  0
   56.6537   -3.7290  -14.9671 C   0  0  0  0  0  0  0  0  0  0  0  0
   57.7890   -3.2274  -15.3959 C   0  0  0  0  0  0  0  0  0  0  0  0
   58.1051   -3.2178  -16.8448 C   0  0  0  0  0  0  0  0  0  0  0  0
   57.2833   -2.8571  -17.8783 C   0  0  0  0  0  0  0  0  0  0  0  0
   57.7878   -2.9277  -19.1207 C   0  0  0  0  0  0  0  0  0  0  0  0
   59.0827   -3.3548  -19.2466 C   0  0  0  0  0  0  0  0  0  0  0  0
   59.5530   -3.6432  -17.6367 S   0  0  0  0  0  0  0  0  0  0  0  0
   53.5815   -4.1663   -7.5204 C   0  0  0  0  0  0  0  0  0  0  0  0
   52.0766   -4.1366   -7.3294 C   0  0  0  0  0  0  0  0  0  0  0  0
   51.2908   -6.1136   -6.0697 C   0  0  0  0  0  0  0  0  0  0  0  0
   51.5257   -5.4979   -7.1984 C   0  0  0  0  0  0  0  0  0  0  0  0
   51.5593   -5.4974   -4.7685 C   0  0  0  0  0  0  0  0  0  0  0  0
   52.5196   -6.2569   -4.0685 O   0  0  0  0  0  0  0  0  0  0  0  0
   53.8572   -5.9637   -4.1774 C   0  0  0  0  0  0  0  0  0  0  0  0
   54.4007   -5.2177   -3.3370 O   0  0  0  0  0  0  0  0  0  0  0  0
   54.7056   -6.5094   -5.2794 C   0  0  0  0  0  0  0  0  0  0  0  0
   56.9478   -7.0019   -4.2842 C   0  0  0  0  0  0  0  0  0  0  0  0
   55.6371   -7.5676   -4.7294 C   0  0  0  0  0  0  0  0  0  0  0  0
   55.0151   -8.3403   -3.6041 C   0  0  0  0  0  0  0  0  0  0  0  0
 25 26  1  0  0  0
 26 27  1  0  0  0
 26 24  1  0  0  0
 24 22  1  0  0  0
 22 23  2  0  0  0
 22 21  1  0  0  0
 21 20  1  0  0  0
 20 18  1  0  0  0
 18 19  2  0  0  0
 19 17  1  0  0  0
 17 16  1  0  0  0
 16  1  1  0  0  0
  1  2  1  0  0  0
  2  3  2  0  0  0
  2  5  1  0  0  0
  5  6  2  0  0  0
  6  7  1  0  0  0
  7  8  2  0  0  0
  8  9  1  0  0  0
  9 10  2  0  0  0
 10 11  1  0  0  0
 11 12  2  0  0  0
 12 13  1  0  0  0
 13 14  2  0  0  0
 14 15  1  0  0  0
 15 11  1  0  0  0
  1  4  1  0  0  0
M  END
> <minimizedAffinity>
-5.91617

> <CNNscore>
0.2765170038

> <CNNaffinity>
5.9239740372

> <CNN_VS>
1.6380795240

> <CNNaffinity_variance>
0.0223595425

$$$$
[H]/C(=C(\[H])C([H])([H])C([H])([H])N([H])C(=O)/C([H])=C([H])/C([H])=C([H])/C([H])=C(\[H])c1sc([H])c([H])c1[H])C([H])([H])OC(=O)C([H])([H])C([H])(C([H])([H])[H])C([H])([H])[H]


 27 27  0  0  0  0  0  0  0  0999 V2000
   53.2031   -4.2740   -7.7975 N   0  0  0  0  0  0  0  0  0  0  0  0
   53.6439   -3.6748   -8.9918 C   0  0  0  0  0  0  0  0  0  0  0  0
   52.7941   -3.1522   -9.7552 O   0  0  0  0  0  0  0  0  0  0  0  0
   53.9069   -4.7101   -7.1552 H   0  0  0  0  0  0  0  0  0  0  0  0
   55.0395   -3.6483   -9.3546 C   0  0  0  0  0  0  0  0  0  0  0  0
   55.5293   -4.1209  -10.4645 C   0  0  0  0  0  0  0  0  0  0  0  0
   56.9615   -4.0644  -10.7774 C   0  0  0  0  0  0  0  0  0  0  0  0
   57.4322   -4.0942  -11.9909 C   0  0  0  0  0  0  0  0  0  0  0  0
   58.8790   -4.0357  -12.2776 C   0  0  0  0  0  0  0  0  0  0  0  0
   59.3197   -3.5909  -13.4318 C   0  0  0  0  0  0  0  0  0  0  0  0
   60.7757   -3.5367  -13.7084 C   0  0  0  0  0  0  0  0  0  0  0  0
   61.5176   -2.4472  -14.0770 C   0  0  0  0  0  0  0  0  0  0  0  0
   62.8322   -2.6350  -14.2758 C   0  0  0  0  0  0  0  0  0  0  0  0
   63.3178   -3.9020  -14.0921 C   0  0  0  0  0  0  0  0  0  0  0  0
   61.9327   -4.7867  -13.6505 S   0  0  0  0  0  0  0  0  0  0  0  0
   51.8193   -4.3271   -7.3936 C   0  0  0  0  0  0  0  0  0  0  0  0
   51.6271   -4.7899   -5.9615 C   0  0  0  0  0  0  0  0  0  0  0  0
   49.7563   -4.7904   -4.3450 C   0  0  0  0  0  0  0  0  0  0  0  0
   50.2056   -4.7513   -5.5717 C   0  0  0  0  0  0  0  0  0  0  0  0
   50.6462   -4.8808   -3.1854 C   0  0  0  0  0  0  0  0  0  0  0  0
   50.2465   -5.9504   -2.3577 O   0  0  0  0  0  0  0  0  0  0  0  0
   51.1807   -6.7873   -1.7973 C   0  0  0  0  0  0  0  0  0  0  0  0
   50.9280   -8.0026   -1.6668 O   0  0  0  0  0  0  0  0  0  0  0  0
   52.5113   -6.2960   -1.3283 C   0  0  0  0  0  0  0  0  0  0  0  0
   54.1719   -5.8580   -3.1480 C   0  0  0  0  0  0  0  0  0  0  0  0
   53.6042   -6.8694   -2.2040 C   0  0  0  0  0  0  0  0  0  0  0  0
   54.7115   -7.4828   -1.3992 C   0  0  0  0  0  0  0  0  0  0  0  0
 25 26  1  0  0  0
 26 27  1  0  0  0
 26 24  1  0  0  0
 24 22  1  0  0  0
 22 23  2  0  0  0
 22 21  1  0  0  0
 21 20  1  0  0  0
 20 18  1  0  0  0
 18 19  2  0  0  0
 19 17  1  0  0  0
 17 16  1  0  0  0
 16  1  1  0  0  0
  1  2  1  0  0  0
  2  3  2  0  0  0
  2  5  1  0  0  0
  5  6  2  0  0  0
  6  7  1  0  0  0
  7  8  2  0  0  0
  8  9  1  0  0  0
  9 10  2  0  0  0
 10 11  1  0  0  0
 11 12  2  0  0  0
 12 13  1  0  0  0
 13 14  2  0  0  0
 14 15  1  0  0  0
 15 11  1  0  0  0
  1  4  1  0  0  0
M  END
> <minimizedAffinity>
-6.23885

> <CNNscore>
0.2725126147

> <CNNaffinity>
5.7680764198

> <CNN_VS>
1.5718735456

> <CNNaffinity_variance>
0.2381670177

$$$$
[H]Oc1nc(N([H])c2c([H])c(OC([H])([H])[H])c([H])c([H])c2OC([H])([H])[H])c([H])c2c([H])c([H])c([H])c([H])c12


 24 26  0  0  0  0  0  0  0  0999 V2000
   54.9504   -2.8445   -9.1230 N   0  0  0  0  0  0  0  0  0  0  0  0
   55.1487   -1.7805   -9.2340 H   0  0  0  0  0  0  0  0  0  0  0  0
   53.7125   -3.1506   -8.5645 C   0  0  0  0  0  0  0  0  0  0  0  0
   53.4983   -4.4239   -8.0371 C   0  0  0  0  0  0  0  0  0  0  0  0
   52.2853   -4.7753   -7.4718 C   0  0  0  0  0  0  0  0  0  0  0  0
   52.0639   -6.0331   -6.9473 C   0  0  0  0  0  0  0  0  0  0  0  0
   50.8402   -6.3337   -6.3960 C   0  0  0  0  0  0  0  0  0  0  0  0
   49.8437   -5.4081   -6.3601 C   0  0  0  0  0  0  0  0  0  0  0  0
   50.0592   -4.1566   -6.8803 C   0  0  0  0  0  0  0  0  0  0  0  0
   51.2743   -3.8485   -7.4311 C   0  0  0  0  0  0  0  0  0  0  0  0
   51.5014   -2.5941   -7.9565 C   0  0  0  0  0  0  0  0  0  0  0  0
   50.4855   -1.6536   -7.9189 O   0  0  0  0  0  0  0  0  0  0  0  0
   52.6967   -2.3208   -8.4879 N   0  0  0  0  0  0  0  0  0  0  0  0
   50.5014   -0.9992   -7.1511 H   0  0  0  0  0  0  0  0  0  0  0  0
   57.3349   -4.7216  -11.3262 C   0  0  0  0  0  0  0  0  0  0  0  0
   58.0809   -5.3323  -10.3524 C   0  0  0  0  0  0  0  0  0  0  0  0
   57.8209   -5.1432   -9.0121 C   0  0  0  0  0  0  0  0  0  0  0  0
   56.7803   -4.3160   -8.6186 C   0  0  0  0  0  0  0  0  0  0  0  0
   55.9889   -3.6693   -9.5683 C   0  0  0  0  0  0  0  0  0  0  0  0
   56.2906   -3.8920  -10.8985 C   0  0  0  0  0  0  0  0  0  0  0  0
   56.8824   -4.3359  -13.7122 C   0  0  0  0  0  0  0  0  0  0  0  0
   57.6056   -4.9192  -12.6760 O   0  0  0  0  0  0  0  0  0  0  0  0
   56.4942   -4.1059   -7.2828 O   0  0  0  0  0  0  0  0  0  0  0  0
   56.3851   -5.2235   -6.4077 C   0  0  0  0  0  0  0  0  0  0  0  0
 21 22  1  0  0  0
 22 15  1  0  0  0
 15 16  2  0  0  0
 16 17  1  0  0  0
 17 18  2  0  0  0
 18 23  1  0  0  0
 23 24  1  0  0  0
 18 19  1  0  0  0
 19  1  1  0  0  0
  1  3  1  0  0  0
  3  4  2  0  0  0
  4  5  1  0  0  0
  5  6  2  0  0  0
  6  7  1  0  0  0
  7  8  2  0  0  0
  8  9  1  0  0  0
  9 10  2  0  0  0
 10 11  1  0  0  0
 11 12  1  0  0  0
 11 13  2  0  0  0
 19 20  2  0  0  0
 20 15  1  0  0  0
 13  3  1  0  0  0
 10  5  1  0  0  0
  1  2  1  0  0  0
 12 14  1  0  0  0
M  END
> <minimizedAffinity>
-9.28962

> <CNNscore>
0.9413146377

> <CNNaffinity>
6.4746713638

> <CNN_VS>
6.0947027206

> <CNNaffinity_variance>
0.0774933249

$$$$
[H]Oc1nc(N([H])c2c([H])c(OC([H])([H])[H])c([H])c([H])c2OC([H])([H])[H])c([H])c2c([H])c([H])c([H])c([H])c12


 24 26  0  0  0  0  0  0  0  0999 V2000
   54.6992   -3.4289  -10.4444 N   0  0  0  0  0  0  0  0  0  0  0  0
   54.4125   -2.8495  -11.3196 H   0  0  0  0  0  0  0  0  0  0  0  0
   53.7287   -3.4980   -9.4487 C   0  0  0  0  0  0  0  0  0  0  0  0
   53.7302   -4.5802   -8.5689 C   0  0  0  0  0  0  0  0  0  0  0  0
   52.7863   -4.6930   -7.5634 C   0  0  0  0  0  0  0  0  0  0  0  0
   52.7798   -5.7603   -6.6877 C   0  0  0  0  0  0  0  0  0  0  0  0
   51.8201   -5.8269   -5.7048 C   0  0  0  0  0  0  0  0  0  0  0  0
   50.8761   -4.8547   -5.5828 C   0  0  0  0  0  0  0  0  0  0  0  0
   50.8787   -3.7919   -6.4509 C   0  0  0  0  0  0  0  0  0  0  0  0
   51.8303   -3.7173   -7.4326 C   0  0  0  0  0  0  0  0  0  0  0  0
   51.8420   -2.6539   -8.3101 C   0  0  0  0  0  0  0  0  0  0  0  0
   50.8802   -1.6655   -8.1841 O   0  0  0  0  0  0  0  0  0  0  0  0
   52.7822   -2.6067   -9.2586 N   0  0  0  0  0  0  0  0  0  0  0  0
   51.1415   -0.8422   -7.6627 H   0  0  0  0  0  0  0  0  0  0  0  0
   57.9681   -5.0197   -9.5240 C   0  0  0  0  0  0  0  0  0  0  0  0
   58.5431   -5.0477  -10.7676 C   0  0  0  0  0  0  0  0  0  0  0  0
   57.8906   -4.5636  -11.8809 C   0  0  0  0  0  0  0  0  0  0  0  0
   56.6169   -4.0299  -11.7595 C   0  0  0  0  0  0  0  0  0  0  0  0
   55.9845   -3.9765  -10.5171 C   0  0  0  0  0  0  0  0  0  0  0  0
   56.6811   -4.4747   -9.4324 C   0  0  0  0  0  0  0  0  0  0  0  0
   59.9225   -6.0390   -8.4343 C   0  0  0  0  0  0  0  0  0  0  0  0
   58.6352   -5.5108   -8.4069 O   0  0  0  0  0  0  0  0  0  0  0  0
   55.9363   -3.5364  -12.8566 O   0  0  0  0  0  0  0  0  0  0  0  0
   56.3902   -3.8639  -14.1655 C   0  0  0  0  0  0  0  0  0  0  0  0
 21 22  1  0  0  0
 22 15  1  0  0  0
 15 16  2  0  0  0
 16 17  1  0  0  0
 17 18  2  0  0  0
 18 23  1  0  0  0
 23 24  1  0  0  0
 18 19  1  0  0  0
 19  1  1  0  0  0
  1  3  1  0  0  0
  3  4  2  0  0  0
  4  5  1  0  0  0
  5  6  2  0  0  0
  6  7  1  0  0  0
  7  8  2  0  0  0
  8  9  1  0  0  0
  9 10  2  0  0  0
 10 11  1  0  0  0
 11 12  1  0  0  0
 11 13  2  0  0  0
 19 20  2  0  0  0
 20 15  1  0  0  0
 13  3  1  0  0  0
 10  5  1  0  0  0
  1  2  1  0  0  0
 12 14  1  0  0  0
M  END
> <minimizedAffinity>
-9.38060

> <CNNscore>
0.9200139046

> <CNNaffinity>
6.1979017258

> <CNN_VS>
5.7021555901

> <CNNaffinity_variance>
0.0489927270

$$$$
[H]Oc1nc(N([H])c2c([H])c(OC([H])([H])[H])c([H])c([H])c2OC([H])([H])[H])c([H])c2c([H])c([H])c([H])c([H])c12


 24 26  0  0  0  0  0  0  0  0999 V2000
   55.6434   -4.7664   -8.7325 N   0  0  0  0  0  0  0  0  0  0  0  0
   56.1787   -5.3259   -7.9682 H   0  0  0  0  0  0  0  0  0  0  0  0
   54.3712   -4.3420   -8.3590 C   0  0  0  0  0  0  0  0  0  0  0  0
   53.7355   -4.9586   -7.2815 C   0  0  0  0  0  0  0  0  0  0  0  0
   52.4714   -4.5719   -6.8729 C   0  0  0  0  0  0  0  0  0  0  0  0
   51.8342   -5.1762   -5.8075 C   0  0  0  0  0  0  0  0  0  0  0  0
   50.5773   -4.7555   -5.4401 C   0  0  0  0  0  0  0  0  0  0  0  0
   49.9523   -3.7512   -6.1122 C   0  0  0  0  0  0  0  0  0  0  0  0
   50.5818   -3.1476   -7.1718 C   0  0  0  0  0  0  0  0  0  0  0  0
   51.8332   -3.5598   -7.5446 C   0  0  0  0  0  0  0  0  0  0  0  0
   52.4746   -2.9601   -8.6077 C   0  0  0  0  0  0  0  0  0  0  0  0
   51.8365   -1.9380   -9.2904 O   0  0  0  0  0  0  0  0  0  0  0  0
   53.6954   -3.3826   -8.9499 N   0  0  0  0  0  0  0  0  0  0  0  0
   52.0677   -0.9953   -9.0152 H   0  0  0  0  0  0  0  0  0  0  0  0
   56.5413   -3.9532  -12.2815 C   0  0  0  0  0  0  0  0  0  0  0  0
   57.8660   -4.3020  -12.2460 C   0  0  0  0  0  0  0  0  0  0  0  0
   58.4585   -4.7897  -11.1011 C   0  0  0  0  0  0  0  0  0  0  0  0
   57.7102   -4.9385   -9.9436 C   0  0  0  0  0  0  0  0  0  0  0  0
   56.3571   -4.5988   -9.9239 C   0  0  0  0  0  0  0  0  0  0  0  0
   55.8109   -4.1145  -11.0974 C   0  0  0  0  0  0  0  0  0  0  0  0
   56.3864   -3.7685  -14.7286 C   0  0  0  0  0  0  0  0  0  0  0  0
   55.9531   -3.4619  -13.4421 O   0  0  0  0  0  0  0  0  0  0  0  0
   58.2748   -5.4248   -8.7795 O   0  0  0  0  0  0  0  0  0  0  0  0
   59.6310   -5.8577   -8.7889 C   0  0  0  0  0  0  0  0  0  0  0  0
 21 22  1  0  0  0
 22 15  1  0  0  0
 15 16  2  0  0  0
 16 17  1  0  0  0
 17 18  2  0  0  0
 18 23  1  0  0  0
 23 24  1  0  0  0
 18 19  1  0  0  0
 19  1  1  0  0  0
  1  3  1  0  0  0
  3  4  2  0  0  0
  4  5  1  0  0  0
  5  6  2  0  0  0
  6  7  1  0  0  0
  7  8  2  0  0  0
  8  9  1  0  0  0
  9 10  2  0  0  0
 10 11  1  0  0  0
 11 12  1  0  0  0
 11 13  2  0  0  0
 19 20  2  0  0  0
 20 15  1  0  0  0
 13  3  1  0  0  0
 10  5  1  0  0  0
  1  2  1  0  0  0
 12 14  1  0  0  0
M  END
> <minimizedAffinity>
-9.70353

> <CNNscore>
0.7236958146

> <CNNaffinity>
6.0215840340

> <CNN_VS>
4.3577952385

> <CNNaffinity_variance>
0.0206494220

$$$$
[H]Oc1nc(N([H])c2c([H])c(OC([H])([H])[H])c([H])c([H])c2OC([H])([H])[H])c([H])c2c([H])c([H])c([H])c([H])c12


 24 26  0  0  0  0  0  0  0  0999 V2000
   54.5025   -3.1665   -9.4844 N   0  0  0  0  0  0  0  0  0  0  0  0
   54.3848   -2.1662   -9.8959 H   0  0  0  0  0  0  0  0  0  0  0  0
   53.4666   -3.5782   -8.6504 C   0  0  0  0  0  0  0  0  0  0  0  0
   52.4456   -2.6811   -8.3374 C   0  0  0  0  0  0  0  0  0  0  0  0
   51.3950   -3.0437   -7.5131 C   0  0  0  0  0  0  0  0  0  0  0  0
   50.3799   -2.1628   -7.1976 C   0  0  0  0  0  0  0  0  0  0  0  0
   49.3574   -2.5714   -6.3735 C   0  0  0  0  0  0  0  0  0  0  0  0
   49.3319   -3.8328   -5.8643 C   0  0  0  0  0  0  0  0  0  0  0  0
   50.3388   -4.7118   -6.1751 C   0  0  0  0  0  0  0  0  0  0  0  0
   51.3608   -4.3138   -6.9948 C   0  0  0  0  0  0  0  0  0  0  0  0
   52.3775   -5.1890   -7.3135 C   0  0  0  0  0  0  0  0  0  0  0  0
   52.3495   -6.4724   -6.7939 O   0  0  0  0  0  0  0  0  0  0  0  0
   53.3624   -4.7738   -8.1156 N   0  0  0  0  0  0  0  0  0  0  0  0
   51.9593   -7.1921   -7.3837 H   0  0  0  0  0  0  0  0  0  0  0  0
   57.2176   -4.6682  -11.5907 C   0  0  0  0  0  0  0  0  0  0  0  0
   58.0305   -5.1257  -10.5868 C   0  0  0  0  0  0  0  0  0  0  0  0
   57.7103   -4.9538   -9.2573 C   0  0  0  0  0  0  0  0  0  0  0  0
   56.5380   -4.3025   -8.9060 C   0  0  0  0  0  0  0  0  0  0  0  0
   55.6737   -3.8167   -9.8876 C   0  0  0  0  0  0  0  0  0  0  0  0
   56.0403   -4.0146  -11.2054 C   0  0  0  0  0  0  0  0  0  0  0  0
   57.0870   -4.0401  -13.9645 C   0  0  0  0  0  0  0  0  0  0  0  0
   57.5500   -4.8469  -12.9292 O   0  0  0  0  0  0  0  0  0  0  0  0
   56.1886   -4.1144   -7.5820 O   0  0  0  0  0  0  0  0  0  0  0  0
   56.3839   -5.1734   -6.6509 C   0  0  0  0  0  0  0  0  0  0  0  0
 21 22  1  0  0  0
 22 15  1  0  0  0
 15 16  2  0  0  0
 16 17  1  0  0  0
 17 18  2  0  0  0
 18 23  1  0  0  0
 23 24  1  0  0  0
 18 19  1  0  0  0
 19  1  1  0  0  0
  1  3  1  0  0  0
  3  4  2  0  0  0
  4  5  1  0  0  0
  5  6  2  0  0  0
  6  7  1  0  0  0
  7  8  2  0  0  0
  8  9  1  0  0  0
  9 10  2  0  0  0
 10 11  1  0  0  0
 11 12  1  0  0  0
 11 13  2  0  0  0
 19 20  2  0  0  0
 20 15  1  0  0  0
 13  3  1  0  0  0
 10  5  1  0  0  0
  1  2  1  0  0  0
 12 14  1  0  0  0
M  END
> <minimizedAffinity>
-9.76472

> <CNNscore>
0.6605224609

> <CNNaffinity>
6.0063681602

> <CNN_VS>
3.9673411846

> <CNNaffinity_variance>
0.1056181043

$$$$
[H]Oc1nc(N([H])c2c([H])c(OC([H])([H])[H])c([H])c([H])c2OC([H])([H])[H])c([H])c2c([H])c([H])c([H])c([H])c12


 24 26  0  0  0  0  0  0  0  0999 V2000
   53.5648   -4.3726   -8.8563 N   0  0  0  0  0  0  0  0  0  0  0  0
   53.3263   -4.4941   -9.9109 H   0  0  0  0  0  0  0  0  0  0  0  0
   52.5011   -3.9494   -8.0641 C   0  0  0  0  0  0  0  0  0  0  0  0
   52.1361   -4.7067   -6.9512 C   0  0  0  0  0  0  0  0  0  0  0  0
   51.0861   -4.3270   -6.1339 C   0  0  0  0  0  0  0  0  0  0  0  0
   50.7175   -5.0700   -5.0302 C   0  0  0  0  0  0  0  0  0  0  0  0
   49.6663   -4.6503   -4.2488 C   0  0  0  0  0  0  0  0  0  0  0  0
   48.9839   -3.5120   -4.5483 C   0  0  0  0  0  0  0  0  0  0  0  0
   49.3468   -2.7703   -5.6443 C   0  0  0  0  0  0  0  0  0  0  0  0
   50.3920   -3.1804   -6.4280 C   0  0  0  0  0  0  0  0  0  0  0  0
   50.7649   -2.4426   -7.5315 C   0  0  0  0  0  0  0  0  0  0  0  0
   50.0688   -1.2843   -7.8344 O   0  0  0  0  0  0  0  0  0  0  0  0
   51.7886   -2.8664   -8.2786 N   0  0  0  0  0  0  0  0  0  0  0  0
   50.4645   -0.4175   -7.5027 H   0  0  0  0  0  0  0  0  0  0  0  0
   56.6424   -5.4308   -6.9930 C   0  0  0  0  0  0  0  0  0  0  0  0
   57.5651   -5.2343   -7.9869 C   0  0  0  0  0  0  0  0  0  0  0  0
   57.2030   -4.7698   -9.2331 C   0  0  0  0  0  0  0  0  0  0  0  0
   55.8736   -4.4883   -9.5077 C   0  0  0  0  0  0  0  0  0  0  0  0
   54.8927   -4.6704   -8.5323 C   0  0  0  0  0  0  0  0  0  0  0  0
   55.3076   -5.1378   -7.2997 C   0  0  0  0  0  0  0  0  0  0  0  0
   56.3021   -6.8450   -5.0104 C   0  0  0  0  0  0  0  0  0  0  0  0
   57.0184   -5.8999   -5.7389 O   0  0  0  0  0  0  0  0  0  0  0  0
   55.4784   -4.0213  -10.7471 O   0  0  0  0  0  0  0  0  0  0  0  0
   56.3936   -4.0708  -11.8364 C   0  0  0  0  0  0  0  0  0  0  0  0
 21 22  1  0  0  0
 22 15  1  0  0  0
 15 16  2  0  0  0
 16 17  1  0  0  0
 17 18  2  0  0  0
 18 23  1  0  0  0
 23 24  1  0  0  0
 18 19  1  0  0  0
 19  1  1  0  0  0
  1  3  1  0  0  0
  3  4  2  0  0  0
  4  5  1  0  0  0
  5  6  2  0  0  0
  6  7  1  0  0  0
  7  8  2  0  0  0
  8  9  1  0  0  0
  9 10  2  0  0  0
 10 11  1  0  0  0
 11 12  1  0  0  0
 11 13  2  0  0  0
 19 20  2  0  0  0
 20 15  1  0  0  0
 13  3  1  0  0  0
 10  5  1  0  0  0
  1  2  1  0  0  0
 12 14  1  0  0  0
M  END
> <minimizedAffinity>
-9.96418

> <CNNscore>
0.6522713900

> <CNNaffinity>
6.2030305862

> <CNN_VS>
4.0460596085

> <CNNaffinity_variance>
0.1379573345

$$$$
[H]Oc1nc(N([H])c2c([H])c(OC([H])([H])[H])c([H])c([H])c2OC([H])([H])[H])c([H])c2c([H])c([H])c([H])c([H])c12


 24 26  0  0  0  0  0  0  0  0999 V2000
   54.8339   -3.5497  -10.0694 N   0  0  0  0  0  0  0  0  0  0  0  0
   54.5320   -2.8213  -10.8190 H   0  0  0  0  0  0  0  0  0  0  0  0
   53.8796   -3.8047   -9.0883 C   0  0  0  0  0  0  0  0  0  0  0  0
   52.8394   -2.8956   -8.8961 C   0  0  0  0  0  0  0  0  0  0  0  0
   51.8675   -3.1053   -7.9338 C   0  0  0  0  0  0  0  0  0  0  0  0
   50.8342   -2.2112   -7.7361 C   0  0  0  0  0  0  0  0  0  0  0  0
   49.8925   -2.4648   -6.7663 C   0  0  0  0  0  0  0  0  0  0  0  0
   49.9647   -3.5855   -5.9983 C   0  0  0  0  0  0  0  0  0  0  0  0
   50.9900   -4.4770   -6.1912 C   0  0  0  0  0  0  0  0  0  0  0  0
   51.9320   -4.2327   -7.1543 C   0  0  0  0  0  0  0  0  0  0  0  0
   52.9664   -5.1218   -7.3564 C   0  0  0  0  0  0  0  0  0  0  0  0
   53.0378   -6.2619   -6.5734 O   0  0  0  0  0  0  0  0  0  0  0  0
   53.8718   -4.8582   -8.3032 N   0  0  0  0  0  0  0  0  0  0  0  0
   52.6439   -7.1051   -6.9629 H   0  0  0  0  0  0  0  0  0  0  0  0
   58.2067   -5.0702   -9.4568 C   0  0  0  0  0  0  0  0  0  0  0  0
   58.6670   -5.0819  -10.7475 C   0  0  0  0  0  0  0  0  0  0  0  0
   57.9058   -4.6091  -11.7947 C   0  0  0  0  0  0  0  0  0  0  0  0
   56.6370   -4.1041  -11.5558 C   0  0  0  0  0  0  0  0  0  0  0  0
   56.1189   -4.0684  -10.2609 C   0  0  0  0  0  0  0  0  0  0  0  0
   56.9218   -4.5542   -9.2463 C   0  0  0  0  0  0  0  0  0  0  0  0
   60.2279   -6.1512   -8.5665 C   0  0  0  0  0  0  0  0  0  0  0  0
   58.9829   -5.5498   -8.4072 O   0  0  0  0  0  0  0  0  0  0  0  0
   55.8491   -3.6226  -12.5842 O   0  0  0  0  0  0  0  0  0  0  0  0
   56.3425   -3.6611  -13.9190 C   0  0  0  0  0  0  0  0  0  0  0  0
 21 22  1  0  0  0
 22 15  1  0  0  0
 15 16  2  0  0  0
 16 17  1  0  0  0
 17 18  2  0  0  0
 18 23  1  0  0  0
 23 24  1  0  0  0
 18 19  1  0  0  0
 19  1  1  0  0  0
  1  3  1  0  0  0
  3  4  2  0  0  0
  4  5  1  0  0  0
  5  6  2  0  0  0
  6  7  1  0  0  0
  7  8  2  0  0  0
  8  9  1  0  0  0
  9 10  2  0  0  0
 10 11  1  0  0  0
 11 12  1  0  0  0
 11 13  2  0  0  0
 19 20  2  0  0  0
 20 15  1  0  0  0
 13  3  1  0  0  0
 10  5  1  0  0  0
  1  2  1  0  0  0
 12 14  1  0  0  0
M  END
> <minimizedAffinity>
-9.55979

> <CNNscore>
0.5295505524

> <CNNaffinity>
5.7177147865

> <CNN_VS>
3.0278189182

> <CNNaffinity_variance>
0.1072985679

$$$$
[H]Oc1nc(N([H])c2c([H])c(OC([H])([H])[H])c([H])c([H])c2OC([H])([H])[H])c([H])c2c([H])c([H])c([H])c([H])c12


 24 26  0  0  0  0  0  0  0  0999 V2000
   51.3901   -5.5552   -6.9350 N   0  0  0  0  0  0  0  0  0  0  0  0
   50.8297   -6.3028   -7.4924 H   0  0  0  0  0  0  0  0  0  0  0  0
   52.5751   -5.1456   -7.5401 C   0  0  0  0  0  0  0  0  0  0  0  0
   53.7902   -5.6340   -7.0601 C   0  0  0  0  0  0  0  0  0  0  0  0
   54.9940   -5.2561   -7.6283 C   0  0  0  0  0  0  0  0  0  0  0  0
   56.2016   -5.7342   -7.1602 C   0  0  0  0  0  0  0  0  0  0  0  0
   57.3712   -5.3283   -7.7592 C   0  0  0  0  0  0  0  0  0  0  0  0
   57.3551   -4.4615   -8.8077 C   0  0  0  0  0  0  0  0  0  0  0  0
   56.1571   -3.9836   -9.2764 C   0  0  0  0  0  0  0  0  0  0  0  0
   54.9877   -4.3822   -8.6862 C   0  0  0  0  0  0  0  0  0  0  0  0
   53.7785   -3.9083   -9.1492 C   0  0  0  0  0  0  0  0  0  0  0  0
   53.7645   -3.0260  -10.2166 O   0  0  0  0  0  0  0  0  0  0  0  0
   52.6527   -4.3139   -8.5543 N   0  0  0  0  0  0  0  0  0  0  0  0
   53.6109   -3.4230  -11.1313 H   0  0  0  0  0  0  0  0  0  0  0  0
   50.4066   -5.3963   -3.3197 C   0  0  0  0  0  0  0  0  0  0  0  0
   49.5469   -4.3312   -3.3847 C   0  0  0  0  0  0  0  0  0  0  0  0
   49.2889   -3.6769   -4.5700 C   0  0  0  0  0  0  0  0  0  0  0  0
   49.9068   -4.0930   -5.7393 C   0  0  0  0  0  0  0  0  0  0  0  0
   50.7911   -5.1721   -5.7303 C   0  0  0  0  0  0  0  0  0  0  0  0
   51.0156   -5.7939   -4.5166 C   0  0  0  0  0  0  0  0  0  0  0  0
   51.5533   -7.1073   -1.9766 C   0  0  0  0  0  0  0  0  0  0  0  0
   50.6599   -6.0496   -2.1183 O   0  0  0  0  0  0  0  0  0  0  0  0
   49.6691   -3.4580   -6.9437 O   0  0  0  0  0  0  0  0  0  0  0  0
   50.1090   -2.1161   -7.1245 C   0  0  0  0  0  0  0  0  0  0  0  0
 21 22  1  0  0  0
 22 15  1  0  0  0
 15 16  2  0  0  0
 16 17  1  0  0  0
 17 18  2  0  0  0
 18 23  1  0  0  0
 23 24  1  0  0  0
 18 19  1  0  0  0
 19  1  1  0  0  0
  1  3  1  0  0  0
  3  4  2  0  0  0
  4  5  1  0  0  0
  5  6  2  0  0  0
  6  7  1  0  0  0
  7  8  2  0  0  0
  8  9  1  0  0  0
  9 10  2  0  0  0
 10 11  1  0  0  0
 11 12  1  0  0  0
 11 13  2  0  0  0
 19 20  2  0  0  0
 20 15  1  0  0  0
 13  3  1  0  0  0
 10  5  1  0  0  0
  1  2  1  0  0  0
 12 14  1  0  0  0
M  END
> <minimizedAffinity>
-8.71663

> <CNNscore>
0.4257098138

> <CNNaffinity>
6.0729522705

> <CNN_VS>
2.5853154659

> <CNNaffinity_variance>
0.0525312647

$$$$
[H]Oc1nc(N([H])c2c([H])c(OC([H])([H])[H])c([H])c([H])c2OC([H])([H])[H])c([H])c2c([H])c([H])c([H])c([H])c12


 24 26  0  0  0  0  0  0  0  0999 V2000
   53.2094   -5.4806   -7.7309 N   0  0  0  0  0  0  0  0  0  0  0  0
   52.9307   -6.4933   -8.0147 H   0  0  0  0  0  0  0  0  0  0  0  0
   52.1689   -4.7143   -7.2128 C   0  0  0  0  0  0  0  0  0  0  0  0
   51.4956   -5.1586   -6.0751 C   0  0  0  0  0  0  0  0  0  0  0  0
   50.4553   -4.4321   -5.5233 C   0  0  0  0  0  0  0  0  0  0  0  0
   49.7830   -4.8637   -4.3974 C   0  0  0  0  0  0  0  0  0  0  0  0
   48.7553   -4.1053   -3.8871 C   0  0  0  0  0  0  0  0  0  0  0  0
   48.3916   -2.9343   -4.4767 C   0  0  0  0  0  0  0  0  0  0  0  0
   49.0570   -2.5013   -5.5960 C   0  0  0  0  0  0  0  0  0  0  0  0
   50.0814   -3.2498   -6.1110 C   0  0  0  0  0  0  0  0  0  0  0  0
   50.7566   -2.8240   -7.2352 C   0  0  0  0  0  0  0  0  0  0  0  0
   50.3846   -1.6317   -7.8336 O   0  0  0  0  0  0  0  0  0  0  0  0
   51.7522   -3.5744   -7.7163 N   0  0  0  0  0  0  0  0  0  0  0  0
   50.9146   -0.8118   -7.5792 H   0  0  0  0  0  0  0  0  0  0  0  0
   56.3970   -4.2914   -9.3082 C   0  0  0  0  0  0  0  0  0  0  0  0
   57.2616   -4.6066   -8.2928 C   0  0  0  0  0  0  0  0  0  0  0  0
   56.8263   -5.1908   -7.1228 C   0  0  0  0  0  0  0  0  0  0  0  0
   55.4805   -5.4750   -6.9498 C   0  0  0  0  0  0  0  0  0  0  0  0
   54.5566   -5.1752   -7.9513 C   0  0  0  0  0  0  0  0  0  0  0  0
   55.0439   -4.5902   -9.1048 C   0  0  0  0  0  0  0  0  0  0  0  0
   56.4757   -4.1190  -11.7598 C   0  0  0  0  0  0  0  0  0  0  0  0
   56.8467   -3.7020  -10.4848 O   0  0  0  0  0  0  0  0  0  0  0  0
   55.0125   -6.0605   -5.7885 O   0  0  0  0  0  0  0  0  0  0  0  0
   55.2391   -7.4482   -5.5655 C   0  0  0  0  0  0  0  0  0  0  0  0
 21 22  1  0  0  0
 22 15  1  0  0  0
 15 16  2  0  0  0
 16 17  1  0  0  0
 17 18  2  0  0  0
 18 23  1  0  0  0
 23 24  1  0  0  0
 18 19  1  0  0  0
 19  1  1  0  0  0
  1  3  1  0  0  0
  3  4  2  0  0  0
  4  5  1  0  0  0
  5  6  2  0  0  0
  6  7  1  0  0  0
  7  8  2  0  0  0
  8  9  1  0  0  0
  9 10  2  0  0  0
 10 11  1  0  0  0
 11 12  1  0  0  0
 11 13  2  0  0  0
 19 20  2  0  0  0
 20 15  1  0  0  0
 13  3  1  0  0  0
 10  5  1  0  0  0
  1  2  1  0  0  0
 12 14  1  0  0  0
M  END
> <minimizedAffinity>
-9.61596

> <CNNscore>
0.3891036510

> <CNNaffinity>
5.9206151962

> <CNN_VS>
2.3037328720

> <CNNaffinity_variance>
0.2108560354

$$$$
[H]Oc1nc(N([H])c2c([H])c(OC([H])([H])[H])c([H])c([H])c2OC([H])([H])[H])c([H])c2c([H])c([H])c([H])c([H])c12


 24 26  0  0  0  0  0  0  0  0999 V2000
   54.6793   -5.1895   -6.0110 N   0  0  0  0  0  0  0  0  0  0  0  0
   55.1637   -5.2543   -5.0390 H   0  0  0  0  0  0  0  0  0  0  0  0
   55.5526   -5.1222   -7.0931 C   0  0  0  0  0  0  0  0  0  0  0  0
   55.0809   -4.6626   -8.3225 C   0  0  0  0  0  0  0  0  0  0  0  0
   55.9104   -4.5778   -9.4268 C   0  0  0  0  0  0  0  0  0  0  0  0
   55.4527   -4.1241  -10.6477 C   0  0  0  0  0  0  0  0  0  0  0  0
   56.3169   -4.0585  -11.7157 C   0  0  0  0  0  0  0  0  0  0  0  0
   57.6180   -4.4345  -11.5858 C   0  0  0  0  0  0  0  0  0  0  0  0
   58.0774   -4.8861  -10.3741 C   0  0  0  0  0  0  0  0  0  0  0  0
   57.2241   -4.9549   -9.3054 C   0  0  0  0  0  0  0  0  0  0  0  0
   57.6754   -5.4071   -8.0835 C   0  0  0  0  0  0  0  0  0  0  0  0
   59.0001   -5.7894   -7.9537 O   0  0  0  0  0  0  0  0  0  0  0  0
   56.8208   -5.4640   -7.0577 N   0  0  0  0  0  0  0  0  0  0  0  0
   59.6380   -5.0981   -7.5888 H   0  0  0  0  0  0  0  0  0  0  0  0
   51.0724   -4.3977   -6.6643 C   0  0  0  0  0  0  0  0  0  0  0  0
   50.5037   -5.2617   -5.7654 C   0  0  0  0  0  0  0  0  0  0  0  0
   51.2673   -6.0832   -4.9643 C   0  0  0  0  0  0  0  0  0  0  0  0
   52.6501   -6.0492   -5.0561 C   0  0  0  0  0  0  0  0  0  0  0  0
   53.2815   -5.1883   -5.9544 C   0  0  0  0  0  0  0  0  0  0  0  0
   52.4711   -4.3854   -6.7346 C   0  0  0  0  0  0  0  0  0  0  0  0
   50.0108   -2.2406   -7.1805 C   0  0  0  0  0  0  0  0  0  0  0  0
   50.2928   -3.5728   -7.4680 O   0  0  0  0  0  0  0  0  0  0  0  0
   53.4436   -6.8603   -4.2669 O   0  0  0  0  0  0  0  0  0  0  0  0
   53.5305   -6.6053   -2.8690 C   0  0  0  0  0  0  0  0  0  0  0  0
 21 22  1  0  0  0
 22 15  1  0  0  0
 15 16  2  0  0  0
 16 17  1  0  0  0
 17 18  2  0  0  0
 18 23  1  0  0  0
 23 24  1  0  0  0
 18 19  1  0  0  0
 19  1  1  0  0  0
  1  3  1  0  0  0
  3  4  2  0  0  0
  4  5  1  0  0  0
  5  6  2  0  0  0
  6  7  1  0  0  0
  7  8  2  0  0  0
  8  9  1  0  0  0
  9 10  2  0  0  0
 10 11  1  0  0  0
 11 12  1  0  0  0
 11 13  2  0  0  0
 19 20  2  0  0  0
 20 15  1  0  0  0
 13  3  1  0  0  0
 10  5  1  0  0  0
  1  2  1  0  0  0
 12 14  1  0  0  0
M  END
> <minimizedAffinity>
-8.65360

> <CNNscore>
0.2746410370

> <CNNaffinity>
5.6132397652

> <CNN_VS>
1.5416259766

> <CNNaffinity_variance>
0.1435463130

$$$$
[H]Oc1c([H])c2c(c([H])c1O[H])[C@]1([H])c3c(sc(Cl)c3[H])C([H])([H])N([H])[C@@]1([H])C([H])([H])C2([H])[H]


 23 26  0  0  0  0  0  0  0  0999 V2000
   63.8008  -10.4806   -0.2482 O   0  0  0  0  0  0  0  0  0  0  0  0
   63.7966  -10.1319   -1.5857 C   0  0  0  0  0  0  0  0  0  0  0  0
   63.2042   -8.9310   -1.9388 C   0  0  0  0  0  0  0  0  0  0  0  0
   63.1922   -8.5756   -3.2490 C   0  0  0  0  0  0  0  0  0  0  0  0
   63.7681   -9.4106   -4.2217 C   0  0  0  0  0  0  0  0  0  0  0  0
   64.3494  -10.5901   -3.8605 C   0  0  0  0  0  0  0  0  0  0  0  0
   64.3690  -10.9691   -2.5120 C   0  0  0  0  0  0  0  0  0  0  0  0
   64.9442  -12.1551   -2.0879 O   0  0  0  0  0  0  0  0  0  0  0  0
   63.6503   -8.8510   -5.5831 C   0  0  0  0  0  0  0  0  0  0  0  0
   64.0860   -9.7325   -6.6905 C   0  0  0  0  0  0  0  0  0  0  0  0
   63.7392  -11.0442   -6.8586 C   0  0  0  0  0  0  0  0  0  0  0  0
   64.2407  -11.6812   -7.9477 C   0  0  0  0  0  0  0  0  0  0  0  0
   63.9831  -13.3517   -8.4361 Cl  0  0  0  0  0  0  0  0  0  0  0  0
   65.1712  -10.4805   -8.7171 S   0  0  0  0  0  0  0  0  0  0  0  0
   64.9032   -9.1978   -7.6412 C   0  0  0  0  0  0  0  0  0  0  0  0
   65.3690   -7.7760   -7.6438 C   0  0  0  0  0  0  0  0  0  0  0  0
   64.3887   -6.9932   -6.8983 N   0  0  0  0  0  0  0  0  0  0  0  0
   64.3415   -7.5403   -5.5640 C   0  0  0  0  0  0  0  0  0  0  0  0
   63.6562   -6.5931   -4.5957 C   0  0  0  0  0  0  0  0  0  0  0  0
   62.6073   -7.2936   -3.7450 C   0  0  0  0  0  0  0  0  0  0  0  0
   63.3891   -9.8886    0.4592 H   0  0  0  0  0  0  0  0  0  0  0  0
   65.3796  -12.8172   -2.6927 H   0  0  0  0  0  0  0  0  0  0  0  0
   64.6756   -6.0020   -6.9395 H   0  0  0  0  0  0  0  0  0  0  0  0
  1  2  1  0  0  0
  2  3  2  0  0  0
  3  4  1  0  0  0
  4  5  2  0  0  0
  5  6  1  0  0  0
  6  7  2  0  0  0
  7  8  1  0  0  0
  5  9  1  0  0  0
  9 10  1  0  0  0
 10 11  1  0  0  0
 11 12  2  0  0  0
 12 13  1  0  0  0
 12 14  1  0  0  0
 14 15  1  0  0  0
 15 16  1  0  0  0
 16 17  1  0  0  0
 17 18  1  0  0  0
 18 19  1  0  0  0
 19 20  1  0  0  0
  7  2  1  0  0  0
 18  9  1  0  0  0
 20  4  1  0  0  0
 15 10  2  0  0  0
  1 21  1  0  0  0
  8 22  1  0  0  0
 17 23  1  0  0  0
M  END
> <minimizedAffinity>
-1.41286

> <CNNscore>
0.7240046263

> <CNNaffinity>
4.6656680107

> <CNN_VS>
3.3779652119

> <CNNaffinity_variance>
1.0855042934

$$$$
[H]Oc1c([H])c2c(c([H])c1O[H])[C@]1([H])c3c(sc(Cl)c3[H])C([H])([H])N([H])[C@@]1([H])C([H])([H])C2([H])[H]


 23 26  0  0  0  0  0  0  0  0999 V2000
   61.6244  -11.8474   -9.7390 O   0  0  0  0  0  0  0  0  0  0  0  0
   61.7992  -11.6360   -8.3842 C   0  0  0  0  0  0  0  0  0  0  0  0
   60.8807  -12.2042   -7.5175 C   0  0  0  0  0  0  0  0  0  0  0  0
   61.0395  -12.0047   -6.1840 C   0  0  0  0  0  0  0  0  0  0  0  0
   62.1124  -11.2377   -5.6986 C   0  0  0  0  0  0  0  0  0  0  0  0
   63.0106  -10.6846   -6.5628 C   0  0  0  0  0  0  0  0  0  0  0  0
   62.8588  -10.8826   -7.9413 C   0  0  0  0  0  0  0  0  0  0  0  0
   63.7394  -10.3446   -8.8646 O   0  0  0  0  0  0  0  0  0  0  0  0
   62.1083  -11.1357   -4.2255 C   0  0  0  0  0  0  0  0  0  0  0  0
   63.1072  -10.2171   -3.6326 C   0  0  0  0  0  0  0  0  0  0  0  0
   63.3606   -8.9356   -4.0358 C   0  0  0  0  0  0  0  0  0  0  0  0
   64.3165   -8.2515   -3.3562 C   0  0  0  0  0  0  0  0  0  0  0  0
   64.8674   -6.6034   -3.6314 Cl  0  0  0  0  0  0  0  0  0  0  0  0
   64.8469   -9.3677   -2.1847 S   0  0  0  0  0  0  0  0  0  0  0  0
   63.8447  -10.6762   -2.5824 C   0  0  0  0  0  0  0  0  0  0  0  0
   63.6935  -12.0388   -1.9833 C   0  0  0  0  0  0  0  0  0  0  0  0
   62.3368  -12.4940   -2.2687 N   0  0  0  0  0  0  0  0  0  0  0  0
   62.1960  -12.5202   -3.7044 C   0  0  0  0  0  0  0  0  0  0  0  0
   60.9827  -13.3260   -4.1322 C   0  0  0  0  0  0  0  0  0  0  0  0
   60.1293  -12.5894   -5.1539 C   0  0  0  0  0  0  0  0  0  0  0  0
   60.8566  -12.3961  -10.0990 H   0  0  0  0  0  0  0  0  0  0  0  0
   64.5318   -9.7877   -8.6284 H   0  0  0  0  0  0  0  0  0  0  0  0
   62.2072  -13.4121   -1.8138 H   0  0  0  0  0  0  0  0  0  0  0  0
  1  2  1  0  0  0
  2  3  2  0  0  0
  3  4  1  0  0  0
  4  5  2  0  0  0
  5  6  1  0  0  0
  6  7  2  0  0  0
  7  8  1  0  0  0
  5  9  1  0  0  0
  9 10  1  0  0  0
 10 11  1  0  0  0
 11 12  2  0  0  0
 12 13  1  0  0  0
 12 14  1  0  0  0
 14 15  1  0  0  0
 15 16  1  0  0  0
 16 17  1  0  0  0
 17 18  1  0  0  0
 18 19  1  0  0  0
 19 20  1  0  0  0
  7  2  1  0  0  0
 18  9  1  0  0  0
 20  4  1  0  0  0
 15 10  2  0  0  0
  1 21  1  0  0  0
  8 22  1  0  0  0
 17 23  1  0  0  0
M  END
> <minimizedAffinity>
-2.77031

> <CNNscore>
0.6042234302

> <CNNaffinity>
4.4845480919

> <CNN_VS>
2.7096691132

> <CNNaffinity_variance>
0.5388888121

$$$$
[H]Oc1c([H])c2c(c([H])c1O[H])[C@]1([H])c3c(sc(Cl)c3[H])C([H])([H])N([H])[C@@]1([H])C([H])([H])C2([H])[H]


 23 26  0  0  0  0  0  0  0  0999 V2000
   61.6994   -5.9134  -11.5009 O   0  0  0  0  0  0  0  0  0  0  0  0
   62.1465   -6.8220  -10.5601 C   0  0  0  0  0  0  0  0  0  0  0  0
   62.9766   -7.8432  -10.9911 C   0  0  0  0  0  0  0  0  0  0  0  0
   63.4233   -8.7434  -10.0782 C   0  0  0  0  0  0  0  0  0  0  0  0
   63.0486   -8.6382   -8.7278 C   0  0  0  0  0  0  0  0  0  0  0  0
   62.2314   -7.6270   -8.3162 C   0  0  0  0  0  0  0  0  0  0  0  0
   61.7634   -6.6911   -9.2476 C   0  0  0  0  0  0  0  0  0  0  0  0
   60.9312   -5.6449   -8.8868 O   0  0  0  0  0  0  0  0  0  0  0  0
   63.6331   -9.7104   -7.8978 C   0  0  0  0  0  0  0  0  0  0  0  0
   63.1678   -9.7750   -6.4933 C   0  0  0  0  0  0  0  0  0  0  0  0
   61.8676   -9.7259   -6.0736 C   0  0  0  0  0  0  0  0  0  0  0  0
   61.6465   -9.8065   -4.7364 C   0  0  0  0  0  0  0  0  0  0  0  0
   60.1031   -9.7712   -3.8925 Cl  0  0  0  0  0  0  0  0  0  0  0  0
   63.2123   -9.9479   -4.0825 S   0  0  0  0  0  0  0  0  0  0  0  0
   64.1121   -9.9022   -5.5188 C   0  0  0  0  0  0  0  0  0  0  0  0
   65.5817   -9.9991   -5.7822 C   0  0  0  0  0  0  0  0  0  0  0  0
   65.7502  -10.5230   -7.1336 N   0  0  0  0  0  0  0  0  0  0  0  0
   65.1046   -9.5930   -8.0281 C   0  0  0  0  0  0  0  0  0  0  0  0
   65.5292   -9.8165   -9.4683 C   0  0  0  0  0  0  0  0  0  0  0  0
   64.3435   -9.8693  -10.4201 C   0  0  0  0  0  0  0  0  0  0  0  0
   61.9616   -5.9800  -12.4741 H   0  0  0  0  0  0  0  0  0  0  0  0
   60.6069   -5.4780   -7.9590 H   0  0  0  0  0  0  0  0  0  0  0  0
   66.7617  -10.6421   -7.3046 H   0  0  0  0  0  0  0  0  0  0  0  0
  1  2  1  0  0  0
  2  3  2  0  0  0
  3  4  1  0  0  0
  4  5  2  0  0  0
  5  6  1  0  0  0
  6  7  2  0  0  0
  7  8  1  0  0  0
  5  9  1  0  0  0
  9 10  1  0  0  0
 10 11  1  0  0  0
 11 12  2  0  0  0
 12 13  1  0  0  0
 12 14  1  0  0  0
 14 15  1  0  0  0
 15 16  1  0  0  0
 16 17  1  0  0  0
 17 18  1  0  0  0
 18 19  1  0  0  0
 19 20  1  0  0  0
  7  2  1  0  0  0
 18  9  1  0  0  0
 20  4  1  0  0  0
 15 10  2  0  0  0
  1 21  1  0  0  0
  8 22  1  0  0  0
 17 23  1  0  0  0
M  END
> <minimizedAffinity>
-2.21840

> <CNNscore>
0.5139723420

> <CNNaffinity>
4.3750934601

> <CNN_VS>
2.2486770153

> <CNNaffinity_variance>
0.5732815266

$$$$
[H]Oc1c([H])c2c(c([H])c1O[H])[C@]1([H])c3c(sc(Cl)c3[H])C([H])([H])N([H])[C@@]1([H])C([H])([H])C2([H])[H]


 23 26  0  0  0  0  0  0  0  0999 V2000
   54.8507   -3.8162  -16.4621 O   0  0  0  0  0  0  0  0  0  0  0  0
   56.2297   -3.8070  -16.5561 C   0  0  0  0  0  0  0  0  0  0  0  0
   56.8374   -2.6578  -17.0334 C   0  0  0  0  0  0  0  0  0  0  0  0
   58.1913   -2.6343  -17.1315 C   0  0  0  0  0  0  0  0  0  0  0  0
   58.9548   -3.7532  -16.7571 C   0  0  0  0  0  0  0  0  0  0  0  0
   58.3440   -4.8784  -16.2874 C   0  0  0  0  0  0  0  0  0  0  0  0
   56.9477   -4.9162  -16.1809 C   0  0  0  0  0  0  0  0  0  0  0  0
   56.2741   -6.0313  -15.7118 O   0  0  0  0  0  0  0  0  0  0  0  0
   60.4031   -3.5315  -16.9406 C   0  0  0  0  0  0  0  0  0  0  0  0
   61.2757   -4.7082  -16.7234 C   0  0  0  0  0  0  0  0  0  0  0  0
   61.0814   -5.9597  -17.2384 C   0  0  0  0  0  0  0  0  0  0  0  0
   62.0028   -6.9065  -16.9254 C   0  0  0  0  0  0  0  0  0  0  0  0
   62.0321   -8.5929  -17.4263 Cl  0  0  0  0  0  0  0  0  0  0  0  0
   63.1114   -6.0716  -15.9389 S   0  0  0  0  0  0  0  0  0  0  0  0
   62.3824   -4.5408  -15.9457 C   0  0  0  0  0  0  0  0  0  0  0  0
   62.7771   -3.2419  -15.3168 C   0  0  0  0  0  0  0  0  0  0  0  0
   62.1931   -2.1721  -16.1192 N   0  0  0  0  0  0  0  0  0  0  0  0
   60.7633   -2.3654  -16.1000 C   0  0  0  0  0  0  0  0  0  0  0  0
   60.0254   -1.1247  -16.5696 C   0  0  0  0  0  0  0  0  0  0  0  0
   58.9580   -1.4432  -17.6058 C   0  0  0  0  0  0  0  0  0  0  0  0
   54.2920   -3.0182  -16.7292 H   0  0  0  0  0  0  0  0  0  0  0  0
   56.7176   -6.8750  -15.4196 H   0  0  0  0  0  0  0  0  0  0  0  0
   62.5038   -1.2709  -15.7221 H   0  0  0  0  0  0  0  0  0  0  0  0
  1  2  1  0  0  0
  2  3  2  0  0  0
  3  4  1  0  0  0
  4  5  2  0  0  0
  5  6  1  0  0  0
  6  7  2  0  0  0
  7  8  1  0  0  0
  5  9  1  0  0  0
  9 10  1  0  0  0
 10 11  1  0  0  0
 11 12  2  0  0  0
 12 13  1  0  0  0
 12 14  1  0  0  0
 14 15  1  0  0  0
 15 16  1  0  0  0
 16 17  1  0  0  0
 17 18  1  0  0  0
 18 19  1  0  0  0
 19 20  1  0  0  0
  7  2  1  0  0  0
 18  9  1  0  0  0
 20  4  1  0  0  0
 15 10  2  0  0  0
  1 21  1  0  0  0
  8 22  1  0  0  0
 17 23  1  0  0  0
M  END
> <minimizedAffinity>
3.05500

> <CNNscore>
0.4969640374

> <CNNaffinity>
4.2402935028

> <CNN_VS>
2.1072733402

> <CNNaffinity_variance>
0.5672537088

$$$$
[H]Oc1c([H])c2c(c([H])c1O[H])[C@]1([H])c3c(sc(Cl)c3[H])C([H])([H])N([H])[C@@]1([H])C([H])([H])C2([H])[H]


 23 26  0  0  0  0  0  0  0  0999 V2000
   56.4918   -3.0780  -10.5246 O   0  0  0  0  0  0  0  0  0  0  0  0
   55.9029   -3.7496   -9.4696 C   0  0  0  0  0  0  0  0  0  0  0  0
   56.7181   -4.5219   -8.6593 C   0  0  0  0  0  0  0  0  0  0  0  0
   56.1536   -5.1876   -7.6194 C   0  0  0  0  0  0  0  0  0  0  0  0
   54.7729   -5.0931   -7.3751 C   0  0  0  0  0  0  0  0  0  0  0  0
   53.9814   -4.3281   -8.1801 C   0  0  0  0  0  0  0  0  0  0  0  0
   54.5508   -3.6357   -9.2565 C   0  0  0  0  0  0  0  0  0  0  0  0
   53.7960   -2.8453  -10.1067 O   0  0  0  0  0  0  0  0  0  0  0  0
   54.3539   -5.8903   -6.2049 C   0  0  0  0  0  0  0  0  0  0  0  0
   52.8953   -5.9799   -5.9651 C   0  0  0  0  0  0  0  0  0  0  0  0
   51.9426   -6.2712   -6.9014 C   0  0  0  0  0  0  0  0  0  0  0  0
   50.6529   -6.3118   -6.4788 C   0  0  0  0  0  0  0  0  0  0  0  0
   49.2140   -6.6539   -7.4317 Cl  0  0  0  0  0  0  0  0  0  0  0  0
   50.7674   -5.9534   -4.8182 S   0  0  0  0  0  0  0  0  0  0  0  0
   52.4475   -5.7607   -4.6966 C   0  0  0  0  0  0  0  0  0  0  0  0
   53.3380   -5.4553   -3.5338 C   0  0  0  0  0  0  0  0  0  0  0  0
   54.6545   -6.0087   -3.8338 N   0  0  0  0  0  0  0  0  0  0  0  0
   55.1130   -5.3696   -5.0435 C   0  0  0  0  0  0  0  0  0  0  0  0
   56.6033   -5.5696   -5.2508 C   0  0  0  0  0  0  0  0  0  0  0  0
   56.9352   -6.0277   -6.6631 C   0  0  0  0  0  0  0  0  0  0  0  0
   57.4828   -3.1394  -10.7100 H   0  0  0  0  0  0  0  0  0  0  0  0
   52.8121   -2.7090  -10.0229 H   0  0  0  0  0  0  0  0  0  0  0  0
   55.2614   -5.8477   -3.0139 H   0  0  0  0  0  0  0  0  0  0  0  0
  1  2  1  0  0  0
  2  3  2  0  0  0
  3  4  1  0  0  0
  4  5  2  0  0  0
  5  6  1  0  0  0
  6  7  2  0  0  0
  7  8  1  0  0  0
  5  9  1  0  0  0
  9 10  1  0  0  0
 10 11  1  0  0  0
 11 12  2  0  0  0
 12 13  1  0  0  0
 12 14  1  0  0  0
 14 15  1  0  0  0
 15 16  1  0  0  0
 16 17  1  0  0  0
 17 18  1  0  0  0
 18 19  1  0  0  0
 19 20  1  0  0  0
  7  2  1  0  0  0
 18  9  1  0  0  0
 20  4  1  0  0  0
 15 10  2  0  0  0
  1 21  1  0  0  0
  8 22  1  0  0  0
 17 23  1  0  0  0
M  END
> <minimizedAffinity>
-7.93660

> <CNNscore>
0.4879931509

> <CNNaffinity>
6.1063146591

> <CNN_VS>
2.9798398018

> <CNNaffinity_variance>
0.2708306611

$$$$
[H]Oc1c([H])c2c(c([H])c1O[H])[C@]1([H])c3c(sc(Cl)c3[H])C([H])([H])N([H])[C@@]1([H])C([H])([H])C2([H])[H]


 23 26  0  0  0  0  0  0  0  0999 V2000
   55.3316   -3.6598  -11.3726 O   0  0  0  0  0  0  0  0  0  0  0  0
   56.5817   -4.1940  -11.1225 C   0  0  0  0  0  0  0  0  0  0  0  0
   56.9727   -4.3332   -9.8014 C   0  0  0  0  0  0  0  0  0  0  0  0
   58.1982   -4.8561   -9.5406 C   0  0  0  0  0  0  0  0  0  0  0  0
   59.0478   -5.2451  -10.5903 C   0  0  0  0  0  0  0  0  0  0  0  0
   58.6501   -5.1038  -11.8871 C   0  0  0  0  0  0  0  0  0  0  0  0
   57.3880   -4.5658  -12.1705 C   0  0  0  0  0  0  0  0  0  0  0  0
   56.9323   -4.3986  -13.4673 O   0  0  0  0  0  0  0  0  0  0  0  0
   60.3326   -5.7848  -10.1022 C   0  0  0  0  0  0  0  0  0  0  0  0
   61.3538   -6.0726  -11.1353 C   0  0  0  0  0  0  0  0  0  0  0  0
   61.7290   -5.2369  -12.1502 C   0  0  0  0  0  0  0  0  0  0  0  0
   62.6925   -5.6851  -12.9955 C   0  0  0  0  0  0  0  0  0  0  0  0
   63.3826   -4.8548  -14.3846 Cl  0  0  0  0  0  0  0  0  0  0  0  0
   63.0651   -7.2319  -12.3889 S   0  0  0  0  0  0  0  0  0  0  0  0
   61.9917   -7.2756  -11.0772 C   0  0  0  0  0  0  0  0  0  0  0  0
   61.7373   -8.3101  -10.0267 C   0  0  0  0  0  0  0  0  0  0  0  0
   61.2207   -7.6200   -8.8493 N   0  0  0  0  0  0  0  0  0  0  0  0
   60.0058   -6.9540   -9.2522 C   0  0  0  0  0  0  0  0  0  0  0  0
   59.1802   -6.5241   -8.0532 C   0  0  0  0  0  0  0  0  0  0  0  0
   58.7166   -5.0788   -8.1574 C   0  0  0  0  0  0  0  0  0  0  0  0
   54.7133   -3.3761  -10.6260 H   0  0  0  0  0  0  0  0  0  0  0  0
   57.4525   -4.6416  -14.2823 H   0  0  0  0  0  0  0  0  0  0  0  0
   61.0914   -8.3204   -8.1015 H   0  0  0  0  0  0  0  0  0  0  0  0
  1  2  1  0  0  0
  2  3  2  0  0  0
  3  4  1  0  0  0
  4  5  2  0  0  0
  5  6  1  0  0  0
  6  7  2  0  0  0
  7  8  1  0  0  0
  5  9  1  0  0  0
  9 10  1  0  0  0
 10 11  1  0  0  0
 11 12  2  0  0  0
 12 13  1  0  0  0
 12 14  1  0  0  0
 14 15  1  0  0  0
 15 16  1  0  0  0
 16 17  1  0  0  0
 17 18  1  0  0  0
 18 19  1  0  0  0
 19 20  1  0  0  0
  7  2  1  0  0  0
 18  9  1  0  0  0
 20  4  1  0  0  0
 15 10  2  0  0  0
  1 21  1  0  0  0
  8 22  1  0  0  0
 17 23  1  0  0  0
M  END
> <minimizedAffinity>
-0.15864

> <CNNscore>
0.4154470265

> <CNNaffinity>
4.2858419418

> <CNN_VS>
1.7805403471

> <CNNaffinity_variance>
0.2544035316

$$$$
[H]Oc1c([H])c2c(c([H])c1O[H])[C@]1([H])c3c(sc(Cl)c3[H])C([H])([H])N([H])[C@@]1([H])C([H])([H])C2([H])[H]


 23 26  0  0  0  0  0  0  0  0999 V2000
   60.7381  -12.3701   -8.7021 O   0  0  0  0  0  0  0  0  0  0  0  0
   61.2550  -11.5062   -7.7549 C   0  0  0  0  0  0  0  0  0  0  0  0
   60.7554  -11.5863   -6.4659 C   0  0  0  0  0  0  0  0  0  0  0  0
   61.2534  -10.7437   -5.5250 C   0  0  0  0  0  0  0  0  0  0  0  0
   62.2523   -9.8123   -5.8561 C   0  0  0  0  0  0  0  0  0  0  0  0
   62.7365   -9.7444   -7.1291 C   0  0  0  0  0  0  0  0  0  0  0  0
   62.2317  -10.6081   -8.1098 C   0  0  0  0  0  0  0  0  0  0  0  0
   62.6851  -10.5833   -9.4179 O   0  0  0  0  0  0  0  0  0  0  0  0
   62.6570   -8.9881   -4.6997 C   0  0  0  0  0  0  0  0  0  0  0  0
   63.5887   -7.8735   -4.9873 C   0  0  0  0  0  0  0  0  0  0  0  0
   63.4622   -6.9594   -5.9961 C   0  0  0  0  0  0  0  0  0  0  0  0
   64.4239   -6.0055   -6.0897 C   0  0  0  0  0  0  0  0  0  0  0  0
   64.5429   -4.7031   -7.2666 Cl  0  0  0  0  0  0  0  0  0  0  0  0
   65.4764   -6.3745   -4.8031 S   0  0  0  0  0  0  0  0  0  0  0  0
   64.6736   -7.7294   -4.1750 C   0  0  0  0  0  0  0  0  0  0  0  0
   64.9683   -8.6135   -3.0045 C   0  0  0  0  0  0  0  0  0  0  0  0
   63.7015   -9.1815   -2.5553 N   0  0  0  0  0  0  0  0  0  0  0  0
   63.1572   -9.9247   -3.6659 C   0  0  0  0  0  0  0  0  0  0  0  0
   62.0509  -10.8640   -3.2210 C   0  0  0  0  0  0  0  0  0  0  0  0
   60.8123  -10.7563   -4.0979 C   0  0  0  0  0  0  0  0  0  0  0  0
   60.0195  -13.0427   -8.4755 H   0  0  0  0  0  0  0  0  0  0  0  0
   63.3892   -9.9648   -9.7579 H   0  0  0  0  0  0  0  0  0  0  0  0
   63.8890   -9.7522   -1.7153 H   0  0  0  0  0  0  0  0  0  0  0  0
  1  2  1  0  0  0
  2  3  2  0  0  0
  3  4  1  0  0  0
  4  5  2  0  0  0
  5  6  1  0  0  0
  6  7  2  0  0  0
  7  8  1  0  0  0
  5  9  1  0  0  0
  9 10  1  0  0  0
 10 11  1  0  0  0
 11 12  2  0  0  0
 12 13  1  0  0  0
 12 14  1  0  0  0
 14 15  1  0  0  0
 15 16  1  0  0  0
 16 17  1  0  0  0
 17 18  1  0  0  0
 18 19  1  0  0  0
 19 20  1  0  0  0
  7  2  1  0  0  0
 18  9  1  0  0  0
 20  4  1  0  0  0
 15 10  2  0  0  0
  1 21  1  0  0  0
  8 22  1  0  0  0
 17 23  1  0  0  0
M  END
> <minimizedAffinity>
-3.13686

> <CNNscore>
0.3915216923

> <CNNaffinity>
4.2059211731

> <CNN_VS>
1.6467093229

> <CNNaffinity_variance>
0.3407535851

$$$$
[H]Oc1c([H])c2c(c([H])c1O[H])[C@]1([H])c3c(sc(Cl)c3[H])C([H])([H])N([H])[C@@]1([H])C([H])([H])C2([H])[H]


 23 26  0  0  0  0  0  0  0  0999 V2000
   59.5222   -6.0437   -8.0956 O   0  0  0  0  0  0  0  0  0  0  0  0
   60.7123   -6.4707   -8.6542 C   0  0  0  0  0  0  0  0  0  0  0  0
   61.6251   -7.1023   -7.8263 C   0  0  0  0  0  0  0  0  0  0  0  0
   62.7986   -7.5268   -8.3610 C   0  0  0  0  0  0  0  0  0  0  0  0
   63.0771   -7.3268   -9.7239 C   0  0  0  0  0  0  0  0  0  0  0  0
   62.1690   -6.7043  -10.5287 C   0  0  0  0  0  0  0  0  0  0  0  0
   60.9541   -6.2614   -9.9900 C   0  0  0  0  0  0  0  0  0  0  0  0
   59.9959   -5.6230  -10.7592 O   0  0  0  0  0  0  0  0  0  0  0  0
   64.4011   -7.8545  -10.1098 C   0  0  0  0  0  0  0  0  0  0  0  0
   64.8487   -7.5489  -11.4880 C   0  0  0  0  0  0  0  0  0  0  0  0
   64.8100   -6.3236  -12.0932 C   0  0  0  0  0  0  0  0  0  0  0  0
   65.2747   -6.2485  -13.3667 C   0  0  0  0  0  0  0  0  0  0  0  0
   65.3563   -4.8306  -14.4052 Cl  0  0  0  0  0  0  0  0  0  0  0  0
   65.7538   -7.8460  -13.7098 S   0  0  0  0  0  0  0  0  0  0  0  0
   65.3547   -8.5732  -12.2311 C   0  0  0  0  0  0  0  0  0  0  0  0
   65.5021   -9.9768  -11.7345 C   0  0  0  0  0  0  0  0  0  0  0  0
   65.6010   -9.9180  -10.2798 N   0  0  0  0  0  0  0  0  0  0  0  0
   64.3864   -9.3038   -9.8008 C   0  0  0  0  0  0  0  0  0  0  0  0
   64.1972   -9.5269   -8.3113 C   0  0  0  0  0  0  0  0  0  0  0  0
   63.8463   -8.2435   -7.5735 C   0  0  0  0  0  0  0  0  0  0  0  0
   59.3121   -6.1813   -7.1173 H   0  0  0  0  0  0  0  0  0  0  0  0
   60.0914   -5.4324  -11.7330 H   0  0  0  0  0  0  0  0  0  0  0  0
   65.7552  -10.8782   -9.9325 H   0  0  0  0  0  0  0  0  0  0  0  0
  1  2  1  0  0  0
  2  3  2  0  0  0
  3  4  1  0  0  0
  4  5  2  0  0  0
  5  6  1  0  0  0
  6  7  2  0  0  0
  7  8  1  0  0  0
  5  9  1  0  0  0
  9 10  1  0  0  0
 10 11  1  0  0  0
 11 12  2  0  0  0
 12 13  1  0  0  0
 12 14  1  0  0  0
 14 15  1  0  0  0
 15 16  1  0  0  0
 16 17  1  0  0  0
 17 18  1  0  0  0
 18 19  1  0  0  0
 19 20  1  0  0  0
  7  2  1  0  0  0
 18  9  1  0  0  0
 20  4  1  0  0  0
 15 10  2  0  0  0
  1 21  1  0  0  0
  8 22  1  0  0  0
 17 23  1  0  0  0
M  END
> <minimizedAffinity>
-3.17056

> <CNNscore>
0.3645383120

> <CNNaffinity>
4.1140189171

> <CNN_VS>
1.4997174740

> <CNNaffinity_variance>
0.2091809958

$$$$
[H]Oc1c([H])c2c(c([H])c1O[H])[C@]1([H])c3c(sc(Cl)c3[H])C([H])([H])N([H])[C@@]1([H])C([H])([H])C2([H])[H]


 23 26  0  0  0  0  0  0  0  0999 V2000
   57.2640   -4.7197   -8.9740 O   0  0  0  0  0  0  0  0  0  0  0  0
   58.4776   -5.2535   -9.3652 C   0  0  0  0  0  0  0  0  0  0  0  0
   59.3203   -5.7353   -8.3776 C   0  0  0  0  0  0  0  0  0  0  0  0
   60.5158   -6.2622   -8.7469 C   0  0  0  0  0  0  0  0  0  0  0  0
   60.8861   -6.3147  -10.1016 C   0  0  0  0  0  0  0  0  0  0  0  0
   60.0464   -5.8379  -11.0645 C   0  0  0  0  0  0  0  0  0  0  0  0
   58.8097   -5.2917  -10.6975 C   0  0  0  0  0  0  0  0  0  0  0  0
   57.9180   -4.7921  -11.6317 O   0  0  0  0  0  0  0  0  0  0  0  0
   62.2198   -6.9179  -10.2961 C   0  0  0  0  0  0  0  0  0  0  0  0
   62.7622   -6.8712  -11.6733 C   0  0  0  0  0  0  0  0  0  0  0  0
   62.7908   -5.7749  -12.4898 C   0  0  0  0  0  0  0  0  0  0  0  0
   63.3383   -5.9362  -13.7217 C   0  0  0  0  0  0  0  0  0  0  0  0
   63.5193   -4.7301  -14.9899 Cl  0  0  0  0  0  0  0  0  0  0  0  0
   63.8017   -7.5746  -13.7395 S   0  0  0  0  0  0  0  0  0  0  0  0
   63.2914   -8.0184  -12.1847 C   0  0  0  0  0  0  0  0  0  0  0  0
   63.3742   -9.3107  -11.4354 C   0  0  0  0  0  0  0  0  0  0  0  0
   63.3803   -8.9912  -10.0116 N   0  0  0  0  0  0  0  0  0  0  0  0
   62.1518   -8.2873   -9.7338 C   0  0  0  0  0  0  0  0  0  0  0  0
   61.8618   -8.2357   -8.2447 C   0  0  0  0  0  0  0  0  0  0  0  0
   61.4937   -6.8363   -7.7746 C   0  0  0  0  0  0  0  0  0  0  0  0
   56.9880   -4.6761   -8.0034 H   0  0  0  0  0  0  0  0  0  0  0  0
   58.0805   -4.7816  -12.6152 H   0  0  0  0  0  0  0  0  0  0  0  0
   63.4897   -9.8746   -9.4880 H   0  0  0  0  0  0  0  0  0  0  0  0
  1  2  1  0  0  0
  2  3  2  0  0  0
  3  4  1  0  0  0
  4  5  2  0  0  0
  5  6  1  0  0  0
  6  7  2  0  0  0
  7  8  1  0  0  0
  5  9  1  0  0  0
  9 10  1  0  0  0
 10 11  1  0  0  0
 11 12  2  0  0  0
 12 13  1  0  0  0
 12 14  1  0  0  0
 14 15  1  0  0  0
 15 16  1  0  0  0
 16 17  1  0  0  0
 17 18  1  0  0  0
 18 19  1  0  0  0
 19 20  1  0  0  0
  7  2  1  0  0  0
 18  9  1  0  0  0
 20  4  1  0  0  0
 15 10  2  0  0  0
  1 21  1  0  0  0
  8 22  1  0  0  0
 17 23  1  0  0  0
M  END
> <minimizedAffinity>
-2.68728

> <CNNscore>
0.3638146818

> <CNNaffinity>
3.9150917530

> <CNN_VS>
1.4243679047

> <CNNaffinity_variance>
0.1807812899

$$$$
[H]c1c(-c2c([H])c([H])c([H])c(C([H])([H])n3nc(-c4c([H])c(F)c([H])c(F)c4[H])c([H])c([H])c3=O)c2[H])nnc(C([H])([H])[H])c1[H]


 29 32  0  0  0  0  0  0  0  0999 V2000
   53.2551   -3.8384   -8.3059 N   0  0  0  0  0  0  0  0  0  0  0  0
   53.1757   -4.5392   -7.1783 N   0  0  0  0  0  0  0  0  0  0  0  0
   52.1057   -4.5416   -6.3591 C   0  0  0  0  0  0  0  0  0  0  0  0
   51.0173   -3.7675   -6.7078 C   0  0  0  0  0  0  0  0  0  0  0  0
   51.0608   -3.0238   -7.8730 C   0  0  0  0  0  0  0  0  0  0  0  0
   52.2072   -3.0794   -8.6621 C   0  0  0  0  0  0  0  0  0  0  0  0
   52.3088   -2.4343   -9.7201 O   0  0  0  0  0  0  0  0  0  0  0  0
   52.1255   -5.3549   -5.1360 C   0  0  0  0  0  0  0  0  0  0  0  0
   53.1379   -6.2029   -4.7864 C   0  0  0  0  0  0  0  0  0  0  0  0
   53.0952   -6.9482   -3.6088 C   0  0  0  0  0  0  0  0  0  0  0  0
   54.1045   -7.7772   -3.2849 F   0  0  0  0  0  0  0  0  0  0  0  0
   52.0241   -6.8552   -2.7514 C   0  0  0  0  0  0  0  0  0  0  0  0
   50.9982   -6.0028   -3.0955 C   0  0  0  0  0  0  0  0  0  0  0  0
   49.9429   -5.9088   -2.2544 F   0  0  0  0  0  0  0  0  0  0  0  0
   51.0542   -5.2719   -4.2634 C   0  0  0  0  0  0  0  0  0  0  0  0
   54.4606   -3.9513   -9.0658 C   0  0  0  0  0  0  0  0  0  0  0  0
   57.8835   -5.4030   -8.5658 C   0  0  0  0  0  0  0  0  0  0  0  0
   57.7640   -5.7419   -7.2281 C   0  0  0  0  0  0  0  0  0  0  0  0
   56.6265   -5.5193   -6.4970 C   0  0  0  0  0  0  0  0  0  0  0  0
   55.5422   -4.9338   -7.0995 C   0  0  0  0  0  0  0  0  0  0  0  0
   55.6032   -4.5780   -8.4177 C   0  0  0  0  0  0  0  0  0  0  0  0
   56.7613   -4.8173   -9.1181 C   0  0  0  0  0  0  0  0  0  0  0  0
   62.5558   -6.2787  -11.7099 C   0  0  0  0  0  0  0  0  0  0  0  0
   61.3484   -6.0705  -10.8334 C   0  0  0  0  0  0  0  0  0  0  0  0
   61.3575   -6.4478   -9.5093 C   0  0  0  0  0  0  0  0  0  0  0  0
   60.2260   -6.2452   -8.7148 C   0  0  0  0  0  0  0  0  0  0  0  0
   59.1177   -5.6663   -9.2833 C   0  0  0  0  0  0  0  0  0  0  0  0
   59.1821   -5.3255  -10.5761 N   0  0  0  0  0  0  0  0  0  0  0  0
   60.2460   -5.5142  -11.3298 N   0  0  0  0  0  0  0  0  0  0  0  0
 23 24  1  0  0  0
 24 25  2  0  0  0
 25 26  1  0  0  0
 26 27  2  0  0  0
 27 17  1  0  0  0
 17 18  2  0  0  0
 18 19  1  0  0  0
 19 20  2  0  0  0
 20 21  1  0  0  0
 21 16  1  0  0  0
 16  1  1  0  0  0
  1  2  1  0  0  0
  2  3  2  0  0  0
  3  8  1  0  0  0
  8  9  2  0  0  0
  9 10  1  0  0  0
 10 11  1  0  0  0
 10 12  2  0  0  0
 12 13  1  0  0  0
 13 14  1  0  0  0
 13 15  2  0  0  0
  3  4  1  0  0  0
  4  5  2  0  0  0
  5  6  1  0  0  0
  6  7  2  0  0  0
 21 22  2  0  0  0
 27 28  1  0  0  0
 28 29  2  0  0  0
 29 24  1  0  0  0
 22 17  1  0  0  0
  6  1  1  0  0  0
 15  8  1  0  0  0
M  END
> <minimizedAffinity>
-8.50095

> <CNNscore>
0.6115573645

> <CNNaffinity>
6.9560728073

> <CNN_VS>
4.2540373802

> <CNNaffinity_variance>
0.2665851116

$$$$
[H]c1c(-c2c([H])c([H])c([H])c(C([H])([H])n3nc(-c4c([H])c(F)c([H])c(F)c4[H])c([H])c([H])c3=O)c2[H])nnc(C([H])([H])[H])c1[H]


 29 32  0  0  0  0  0  0  0  0999 V2000
   52.6160   -3.8290   -8.1390 N   0  0  0  0  0  0  0  0  0  0  0  0
   53.1290   -4.4998   -7.1115 N   0  0  0  0  0  0  0  0  0  0  0  0
   54.4179   -4.8823   -7.0215 C   0  0  0  0  0  0  0  0  0  0  0  0
   55.2667   -4.5598   -8.0613 C   0  0  0  0  0  0  0  0  0  0  0  0
   54.7714   -3.8627   -9.1482 C   0  0  0  0  0  0  0  0  0  0  0  0
   53.4251   -3.5062   -9.1600 C   0  0  0  0  0  0  0  0  0  0  0  0
   52.9192   -2.8801  -10.1074 O   0  0  0  0  0  0  0  0  0  0  0  0
   54.8786   -5.6208   -5.8382 C   0  0  0  0  0  0  0  0  0  0  0  0
   54.7379   -6.9684   -5.6634 C   0  0  0  0  0  0  0  0  0  0  0  0
   55.1981   -7.6098   -4.5140 C   0  0  0  0  0  0  0  0  0  0  0  0
   55.0485   -8.9387   -4.3637 F   0  0  0  0  0  0  0  0  0  0  0  0
   55.8145   -6.9028   -3.5084 C   0  0  0  0  0  0  0  0  0  0  0  0
   55.9609   -5.5434   -3.6756 C   0  0  0  0  0  0  0  0  0  0  0  0
   56.5669   -4.8448   -2.6883 F   0  0  0  0  0  0  0  0  0  0  0  0
   55.5009   -4.9227   -4.8177 C   0  0  0  0  0  0  0  0  0  0  0  0
   51.2279   -3.4928   -8.0766 C   0  0  0  0  0  0  0  0  0  0  0  0
   50.4056   -4.5847   -4.5831 C   0  0  0  0  0  0  0  0  0  0  0  0
   49.4065   -3.6635   -4.3152 C   0  0  0  0  0  0  0  0  0  0  0  0
   48.9976   -2.7171   -5.2178 C   0  0  0  0  0  0  0  0  0  0  0  0
   49.5933   -2.6617   -6.4523 C   0  0  0  0  0  0  0  0  0  0  0  0
   50.5853   -3.5458   -6.7719 C   0  0  0  0  0  0  0  0  0  0  0  0
   50.9682   -4.4809   -5.8401 C   0  0  0  0  0  0  0  0  0  0  0  0
   51.5740   -8.3465   -0.4640 C   0  0  0  0  0  0  0  0  0  0  0  0
   51.3159   -7.3653   -1.5776 C   0  0  0  0  0  0  0  0  0  0  0  0
   52.2304   -7.1830   -2.5906 C   0  0  0  0  0  0  0  0  0  0  0  0
   51.9702   -6.2672   -3.6135 C   0  0  0  0  0  0  0  0  0  0  0  0
   50.7918   -5.5623   -3.5817 C   0  0  0  0  0  0  0  0  0  0  0  0
   49.9511   -5.7922   -2.5659 N   0  0  0  0  0  0  0  0  0  0  0  0
   50.1912   -6.6542   -1.5989 N   0  0  0  0  0  0  0  0  0  0  0  0
 23 24  1  0  0  0
 24 25  2  0  0  0
 25 26  1  0  0  0
 26 27  2  0  0  0
 27 17  1  0  0  0
 17 18  2  0  0  0
 18 19  1  0  0  0
 19 20  2  0  0  0
 20 21  1  0  0  0
 21 16  1  0  0  0
 16  1  1  0  0  0
  1  2  1  0  0  0
  2  3  2  0  0  0
  3  8  1  0  0  0
  8  9  2  0  0  0
  9 10  1  0  0  0
 10 11  1  0  0  0
 10 12  2  0  0  0
 12 13  1  0  0  0
 13 14  1  0  0  0
 13 15  2  0  0  0
  3  4  1  0  0  0
  4  5  2  0  0  0
  5  6  1  0  0  0
  6  7  2  0  0  0
 21 22  2  0  0  0
 27 28  1  0  0  0
 28 29  2  0  0  0
 29 24  1  0  0  0
 22 17  1  0  0  0
  6  1  1  0  0  0
 15  8  1  0  0  0
M  END
> <minimizedAffinity>
-11.11596

> <CNNscore>
0.5984677672

> <CNNaffinity>
7.3614335060

> <CNN_VS>
4.4055805206

> <CNNaffinity_variance>
0.2385264933

$$$$
[H]c1c(-c2c([H])c([H])c([H])c(C([H])([H])n3nc(-c4c([H])c(F)c([H])c(F)c4[H])c([H])c([H])c3=O)c2[H])nnc(C([H])([H])[H])c1[H]


 29 32  0  0  0  0  0  0  0  0999 V2000
   50.9512   -5.5800   -4.3830 N   0  0  0  0  0  0  0  0  0  0  0  0
   52.2120   -5.9970   -4.4550 N   0  0  0  0  0  0  0  0  0  0  0  0
   52.9812   -6.2789   -3.3850 C   0  0  0  0  0  0  0  0  0  0  0  0
   52.4297   -6.1266   -2.1288 C   0  0  0  0  0  0  0  0  0  0  0  0
   51.1212   -5.6947   -2.0116 C   0  0  0  0  0  0  0  0  0  0  0  0
   50.3970   -5.4255   -3.1705 C   0  0  0  0  0  0  0  0  0  0  0  0
   49.2177   -5.0339   -3.1325 O   0  0  0  0  0  0  0  0  0  0  0  0
   54.3643   -6.7336   -3.5805 C   0  0  0  0  0  0  0  0  0  0  0  0
   55.0010   -7.6412   -2.7823 C   0  0  0  0  0  0  0  0  0  0  0  0
   56.3178   -8.0313   -3.0229 C   0  0  0  0  0  0  0  0  0  0  0  0
   56.9246   -8.9273   -2.2230 F   0  0  0  0  0  0  0  0  0  0  0  0
   57.0274   -7.5119   -4.0801 C   0  0  0  0  0  0  0  0  0  0  0  0
   56.3938   -6.5959   -4.8905 C   0  0  0  0  0  0  0  0  0  0  0  0
   57.0887   -6.0828   -5.9316 F   0  0  0  0  0  0  0  0  0  0  0  0
   55.0910   -6.2196   -4.6405 C   0  0  0  0  0  0  0  0  0  0  0  0
   50.2706   -5.3305   -5.6151 C   0  0  0  0  0  0  0  0  0  0  0  0
   52.6972   -3.7348   -7.9897 C   0  0  0  0  0  0  0  0  0  0  0  0
   51.9984   -2.5640   -8.2337 C   0  0  0  0  0  0  0  0  0  0  0  0
   50.7865   -2.2808   -7.6602 C   0  0  0  0  0  0  0  0  0  0  0  0
   50.2201   -3.1869   -6.7999 C   0  0  0  0  0  0  0  0  0  0  0  0
   50.8646   -4.3596   -6.5222 C   0  0  0  0  0  0  0  0  0  0  0  0
   52.0787   -4.6080   -7.1167 C   0  0  0  0  0  0  0  0  0  0  0  0
   57.5518   -4.5752  -10.8549 C   0  0  0  0  0  0  0  0  0  0  0  0
   56.2963   -4.3674  -10.0487 C   0  0  0  0  0  0  0  0  0  0  0  0
   56.2857   -4.5645   -8.6860 C   0  0  0  0  0  0  0  0  0  0  0  0
   55.1096   -4.3659   -7.9581 C   0  0  0  0  0  0  0  0  0  0  0  0
   53.9779   -3.9734   -8.6303 C   0  0  0  0  0  0  0  0  0  0  0  0
   54.0636   -3.8014   -9.9549 N   0  0  0  0  0  0  0  0  0  0  0  0
   55.1696   -3.9873  -10.6463 N   0  0  0  0  0  0  0  0  0  0  0  0
 23 24  1  0  0  0
 24 25  2  0  0  0
 25 26  1  0  0  0
 26 27  2  0  0  0
 27 17  1  0  0  0
 17 18  2  0  0  0
 18 19  1  0  0  0
 19 20  2  0  0  0
 20 21  1  0  0  0
 21 16  1  0  0  0
 16  1  1  0  0  0
  1  2  1  0  0  0
  2  3  2  0  0  0
  3  8  1  0  0  0
  8  9  2  0  0  0
  9 10  1  0  0  0
 10 11  1  0  0  0
 10 12  2  0  0  0
 12 13  1  0  0  0
 13 14  1  0  0  0
 13 15  2  0  0  0
  3  4  1  0  0  0
  4  5  2  0  0  0
  5  6  1  0  0  0
  6  7  2  0  0  0
 21 22  2  0  0  0
 27 28  1  0  0  0
 28 29  2  0  0  0
 29 24  1  0  0  0
 22 17  1  0  0  0
  6  1  1  0  0  0
 15  8  1  0  0  0
M  END
> <minimizedAffinity>
-11.09040

> <CNNscore>
0.5203896761

> <CNNaffinity>
7.2808275223

> <CNN_VS>
3.7888674736

> <CNNaffinity_variance>
0.1403066963

$$$$
[H]c1c(-c2c([H])c([H])c([H])c(C([H])([H])n3nc(-c4c([H])c(F)c([H])c(F)c4[H])c([H])c([H])c3=O)c2[H])nnc(C([H])([H])[H])c1[H]


 29 32  0  0  0  0  0  0  0  0999 V2000
   50.8978   -5.5179   -4.3553 N   0  0  0  0  0  0  0  0  0  0  0  0
   52.1666   -5.8959   -4.4811 N   0  0  0  0  0  0  0  0  0  0  0  0
   52.9706   -6.2140   -3.4475 C   0  0  0  0  0  0  0  0  0  0  0  0
   52.4485   -6.1447   -2.1716 C   0  0  0  0  0  0  0  0  0  0  0  0
   51.1327   -5.7555   -1.9987 C   0  0  0  0  0  0  0  0  0  0  0  0
   50.3717   -5.4441   -3.1228 C   0  0  0  0  0  0  0  0  0  0  0  0
   49.1840   -5.0873   -3.0344 O   0  0  0  0  0  0  0  0  0  0  0  0
   54.3594   -6.6196   -3.7017 C   0  0  0  0  0  0  0  0  0  0  0  0
   55.1222   -6.1618   -4.7384 C   0  0  0  0  0  0  0  0  0  0  0  0
   56.4369   -6.5875   -4.9240 C   0  0  0  0  0  0  0  0  0  0  0  0
   57.1695   -6.1225   -5.9527 F   0  0  0  0  0  0  0  0  0  0  0  0
   57.0162   -7.4902   -4.0635 C   0  0  0  0  0  0  0  0  0  0  0  0
   56.2547   -7.9577   -3.0152 C   0  0  0  0  0  0  0  0  0  0  0  0
   56.8213   -8.8459   -2.1666 F   0  0  0  0  0  0  0  0  0  0  0  0
   54.9558   -7.5277   -2.8440 C   0  0  0  0  0  0  0  0  0  0  0  0
   50.1789   -5.2209   -5.5548 C   0  0  0  0  0  0  0  0  0  0  0  0
   52.6163   -3.6742   -7.9507 C   0  0  0  0  0  0  0  0  0  0  0  0
   51.9251   -2.5025   -8.2111 C   0  0  0  0  0  0  0  0  0  0  0  0
   50.7149   -2.2035   -7.6420 C   0  0  0  0  0  0  0  0  0  0  0  0
   50.1425   -3.0937   -6.7693 C   0  0  0  0  0  0  0  0  0  0  0  0
   50.7794   -4.2666   -6.4751 C   0  0  0  0  0  0  0  0  0  0  0  0
   51.9920   -4.5312   -7.0657 C   0  0  0  0  0  0  0  0  0  0  0  0
   57.4671   -4.5817  -10.8017 C   0  0  0  0  0  0  0  0  0  0  0  0
   56.2124   -4.3563   -9.9991 C   0  0  0  0  0  0  0  0  0  0  0  0
   56.1967   -4.5470   -8.6356 C   0  0  0  0  0  0  0  0  0  0  0  0
   55.0214   -4.3320   -7.9111 C   0  0  0  0  0  0  0  0  0  0  0  0
   53.8956   -3.9301   -8.5875 C   0  0  0  0  0  0  0  0  0  0  0  0
   53.9859   -3.7651   -9.9126 N   0  0  0  0  0  0  0  0  0  0  0  0
   55.0912   -3.9664  -10.6008 N   0  0  0  0  0  0  0  0  0  0  0  0
 23 24  1  0  0  0
 24 25  2  0  0  0
 25 26  1  0  0  0
 26 27  2  0  0  0
 27 17  1  0  0  0
 17 18  2  0  0  0
 18 19  1  0  0  0
 19 20  2  0  0  0
 20 21  1  0  0  0
 21 16  1  0  0  0
 16  1  1  0  0  0
  1  2  1  0  0  0
  2  3  2  0  0  0
  3  8  1  0  0  0
  8  9  2  0  0  0
  9 10  1  0  0  0
 10 11  1  0  0  0
 10 12  2  0  0  0
 12 13  1  0  0  0
 13 14  1  0  0  0
 13 15  2  0  0  0
  3  4  1  0  0  0
  4  5  2  0  0  0
  5  6  1  0  0  0
  6  7  2  0  0  0
 21 22  2  0  0  0
 27 28  1  0  0  0
 28 29  2  0  0  0
 29 24  1  0  0  0
 22 17  1  0  0  0
  6  1  1  0  0  0
 15  8  1  0  0  0
M  END
> <minimizedAffinity>
-11.13928

> <CNNscore>
0.4989385605

> <CNNaffinity>
7.2669997215

> <CNN_VS>
3.6257863045

> <CNNaffinity_variance>
0.1390298456

$$$$
[H]c1c(-c2c([H])c([H])c([H])c(C([H])([H])n3nc(-c4c([H])c(F)c([H])c(F)c4[H])c([H])c([H])c3=O)c2[H])nnc(C([H])([H])[H])c1[H]


 29 32  0  0  0  0  0  0  0  0999 V2000
   52.4601   -3.9047   -8.2534 N   0  0  0  0  0  0  0  0  0  0  0  0
   51.6475   -4.1244   -7.2237 N   0  0  0  0  0  0  0  0  0  0  0  0
   50.7332   -3.2418   -6.7757 C   0  0  0  0  0  0  0  0  0  0  0  0
   50.6284   -2.0277   -7.4241 C   0  0  0  0  0  0  0  0  0  0  0  0
   51.4559   -1.7608   -8.4995 C   0  0  0  0  0  0  0  0  0  0  0  0
   52.3738   -2.7301   -8.8968 C   0  0  0  0  0  0  0  0  0  0  0  0
   53.1456   -2.5510   -9.8548 O   0  0  0  0  0  0  0  0  0  0  0  0
   49.8855   -3.5893   -5.6274 C   0  0  0  0  0  0  0  0  0  0  0  0
   48.6700   -3.0243   -5.3634 C   0  0  0  0  0  0  0  0  0  0  0  0
   47.9135   -3.3996   -4.2539 C   0  0  0  0  0  0  0  0  0  0  0  0
   46.7185   -2.8292   -4.0139 F   0  0  0  0  0  0  0  0  0  0  0  0
   48.3680   -4.3588   -3.3796 C   0  0  0  0  0  0  0  0  0  0  0  0
   49.5927   -4.9341   -3.6375 C   0  0  0  0  0  0  0  0  0  0  0  0
   50.0430   -5.8782   -2.7796 F   0  0  0  0  0  0  0  0  0  0  0  0
   50.3298   -4.5531   -4.7388 C   0  0  0  0  0  0  0  0  0  0  0  0
   53.3706   -4.9488   -8.6060 C   0  0  0  0  0  0  0  0  0  0  0  0
   57.0556   -5.2898   -7.9912 C   0  0  0  0  0  0  0  0  0  0  0  0
   57.0533   -5.0571   -6.6258 C   0  0  0  0  0  0  0  0  0  0  0  0
   55.9130   -4.7994   -5.9110 C   0  0  0  0  0  0  0  0  0  0  0  0
   54.7046   -4.7655   -6.5595 C   0  0  0  0  0  0  0  0  0  0  0  0
   54.6465   -4.9876   -7.9068 C   0  0  0  0  0  0  0  0  0  0  0  0
   55.8117   -5.2430   -8.5895 C   0  0  0  0  0  0  0  0  0  0  0  0
   62.1048   -6.4319  -10.3753 C   0  0  0  0  0  0  0  0  0  0  0  0
   60.7495   -6.1173   -9.7978 C   0  0  0  0  0  0  0  0  0  0  0  0
   59.7085   -5.7163  -10.6048 C   0  0  0  0  0  0  0  0  0  0  0  0
   58.4596   -5.4296  -10.0474 C   0  0  0  0  0  0  0  0  0  0  0  0
   58.3002   -5.5572   -8.6892 C   0  0  0  0  0  0  0  0  0  0  0  0
   59.3567   -5.9517   -7.9684 N   0  0  0  0  0  0  0  0  0  0  0  0
   60.5364   -6.2232   -8.4885 N   0  0  0  0  0  0  0  0  0  0  0  0
 23 24  1  0  0  0
 24 25  2  0  0  0
 25 26  1  0  0  0
 26 27  2  0  0  0
 27 17  1  0  0  0
 17 18  2  0  0  0
 18 19  1  0  0  0
 19 20  2  0  0  0
 20 21  1  0  0  0
 21 16  1  0  0  0
 16  1  1  0  0  0
  1  2  1  0  0  0
  2  3  2  0  0  0
  3  8  1  0  0  0
  8  9  2  0  0  0
  9 10  1  0  0  0
 10 11  1  0  0  0
 10 12  2  0  0  0
 12 13  1  0  0  0
 13 14  1  0  0  0
 13 15  2  0  0  0
  3  4  1  0  0  0
  4  5  2  0  0  0
  5  6  1  0  0  0
  6  7  2  0  0  0
 21 22  2  0  0  0
 27 28  1  0  0  0
 28 29  2  0  0  0
 29 24  1  0  0  0
 22 17  1  0  0  0
  6  1  1  0  0  0
 15  8  1  0  0  0
M  END
> <minimizedAffinity>
-8.86625

> <CNNscore>
0.4738427997

> <CNNaffinity>
6.6950545311

> <CNN_VS>
3.1724033356

> <CNNaffinity_variance>
0.1441366374

$$$$
[H]c1c(-c2c([H])c([H])c([H])c(C([H])([H])n3nc(-c4c([H])c(F)c([H])c(F)c4[H])c([H])c([H])c3=O)c2[H])nnc(C([H])([H])[H])c1[H]


 29 32  0  0  0  0  0  0  0  0999 V2000
   52.7006   -3.8816   -8.2854 N   0  0  0  0  0  0  0  0  0  0  0  0
   52.3827   -4.4637   -7.1326 N   0  0  0  0  0  0  0  0  0  0  0  0
   51.3800   -4.0591   -6.3285 C   0  0  0  0  0  0  0  0  0  0  0  0
   50.6297   -2.9692   -6.7216 C   0  0  0  0  0  0  0  0  0  0  0  0
   50.9289   -2.3360   -7.9142 C   0  0  0  0  0  0  0  0  0  0  0  0
   51.9830   -2.8202   -8.6850 C   0  0  0  0  0  0  0  0  0  0  0  0
   52.3023   -2.2952   -9.7658 O   0  0  0  0  0  0  0  0  0  0  0  0
   51.1158   -4.7772   -5.0744 C   0  0  0  0  0  0  0  0  0  0  0  0
   51.9566   -5.6992   -4.5184 C   0  0  0  0  0  0  0  0  0  0  0  0
   51.6461   -6.3466   -3.3232 C   0  0  0  0  0  0  0  0  0  0  0  0
   52.4901   -7.2515   -2.7941 F   0  0  0  0  0  0  0  0  0  0  0  0
   50.4735   -6.0777   -2.6571 C   0  0  0  0  0  0  0  0  0  0  0  0
   49.6192   -5.1494   -3.2101 C   0  0  0  0  0  0  0  0  0  0  0  0
   48.4647   -4.8823   -2.5575 F   0  0  0  0  0  0  0  0  0  0  0  0
   49.9395   -4.5170   -4.3928 C   0  0  0  0  0  0  0  0  0  0  0  0
   53.7903   -4.4389   -9.0240 C   0  0  0  0  0  0  0  0  0  0  0  0
   55.9785   -5.6317   -6.2200 C   0  0  0  0  0  0  0  0  0  0  0  0
   57.2026   -5.5158   -6.8579 C   0  0  0  0  0  0  0  0  0  0  0  0
   57.3374   -5.0688   -8.1462 C   0  0  0  0  0  0  0  0  0  0  0  0
   56.2188   -4.7137   -8.8566 C   0  0  0  0  0  0  0  0  0  0  0  0
   54.9843   -4.8078   -8.2779 C   0  0  0  0  0  0  0  0  0  0  0  0
   54.8893   -5.2604   -6.9837 C   0  0  0  0  0  0  0  0  0  0  0  0
   55.6731   -7.8937   -0.9977 C   0  0  0  0  0  0  0  0  0  0  0  0
   55.7561   -7.2432   -2.3539 C   0  0  0  0  0  0  0  0  0  0  0  0
   55.8410   -5.8749   -2.4821 C   0  0  0  0  0  0  0  0  0  0  0  0
   55.9171   -5.2929   -3.7502 C   0  0  0  0  0  0  0  0  0  0  0  0
   55.9051   -6.1126   -4.8523 C   0  0  0  0  0  0  0  0  0  0  0  0
   55.8206   -7.4331   -4.6504 N   0  0  0  0  0  0  0  0  0  0  0  0
   55.7486   -7.9872   -3.4573 N   0  0  0  0  0  0  0  0  0  0  0  0
 23 24  1  0  0  0
 24 25  2  0  0  0
 25 26  1  0  0  0
 26 27  2  0  0  0
 27 17  1  0  0  0
 17 18  2  0  0  0
 18 19  1  0  0  0
 19 20  2  0  0  0
 20 21  1  0  0  0
 21 16  1  0  0  0
 16  1  1  0  0  0
  1  2  1  0  0  0
  2  3  2  0  0  0
  3  8  1  0  0  0
  8  9  2  0  0  0
  9 10  1  0  0  0
 10 11  1  0  0  0
 10 12  2  0  0  0
 12 13  1  0  0  0
 13 14  1  0  0  0
 13 15  2  0  0  0
  3  4  1  0  0  0
  4  5  2  0  0  0
  5  6  1  0  0  0
  6  7  2  0  0  0
 21 22  2  0  0  0
 27 28  1  0  0  0
 28 29  2  0  0  0
 29 24  1  0  0  0
 22 17  1  0  0  0
  6  1  1  0  0  0
 15  8  1  0  0  0
M  END
> <minimizedAffinity>
-9.69709

> <CNNscore>
0.4694119692

> <CNNaffinity>
7.2675523758

> <CNN_VS>
3.4114761353

> <CNNaffinity_variance>
0.2831450999

$$$$
[H]c1c(-c2c([H])c([H])c([H])c(C([H])([H])n3nc(-c4c([H])c(F)c([H])c(F)c4[H])c([H])c([H])c3=O)c2[H])nnc(C([H])([H])[H])c1[H]


 29 32  0  0  0  0  0  0  0  0999 V2000
   52.6829   -3.8807   -8.3003 N   0  0  0  0  0  0  0  0  0  0  0  0
   52.2396   -4.3900   -7.1545 N   0  0  0  0  0  0  0  0  0  0  0  0
   51.2239   -3.8727   -6.4357 C   0  0  0  0  0  0  0  0  0  0  0  0
   50.5985   -2.7393   -6.9151 C   0  0  0  0  0  0  0  0  0  0  0  0
   51.0303   -2.1791   -8.1034 C   0  0  0  0  0  0  0  0  0  0  0  0
   52.0879   -2.7788   -8.7829 C   0  0  0  0  0  0  0  0  0  0  0  0
   52.5229   -2.3237   -9.8549 O   0  0  0  0  0  0  0  0  0  0  0  0
   50.8155   -4.5181   -5.1809 C   0  0  0  0  0  0  0  0  0  0  0  0
   49.6393   -4.2724   -4.5310 C   0  0  0  0  0  0  0  0  0  0  0  0
   49.3110   -4.9201   -3.3407 C   0  0  0  0  0  0  0  0  0  0  0  0
   48.1462   -4.6620   -2.7182 F   0  0  0  0  0  0  0  0  0  0  0  0
   50.1665   -5.8360   -2.7748 C   0  0  0  0  0  0  0  0  0  0  0  0
   51.3551   -6.0903   -3.4228 C   0  0  0  0  0  0  0  0  0  0  0  0
   52.1992   -6.9908   -2.8689 F   0  0  0  0  0  0  0  0  0  0  0  0
   51.6663   -5.4422   -4.5993 C   0  0  0  0  0  0  0  0  0  0  0  0
   53.7674   -4.5550   -8.9428 C   0  0  0  0  0  0  0  0  0  0  0  0
   55.7934   -5.6890   -5.9961 C   0  0  0  0  0  0  0  0  0  0  0  0
   57.0521   -5.5760   -6.5630 C   0  0  0  0  0  0  0  0  0  0  0  0
   57.2600   -5.1492   -7.8484 C   0  0  0  0  0  0  0  0  0  0  0  0
   56.1833   -4.8124   -8.6289 C   0  0  0  0  0  0  0  0  0  0  0  0
   54.9174   -4.9046   -8.1220 C   0  0  0  0  0  0  0  0  0  0  0  0
   54.7490   -5.3367   -6.8282 C   0  0  0  0  0  0  0  0  0  0  0  0
   55.2426   -7.8674   -0.7583 C   0  0  0  0  0  0  0  0  0  0  0  0
   55.3818   -7.2386   -2.1202 C   0  0  0  0  0  0  0  0  0  0  0  0
   55.3150   -5.8730   -2.2829 C   0  0  0  0  0  0  0  0  0  0  0  0
   55.4467   -5.3113   -3.5556 C   0  0  0  0  0  0  0  0  0  0  0  0
   55.6423   -6.1480   -4.6272 C   0  0  0  0  0  0  0  0  0  0  0  0
   55.6964   -7.4647   -4.3927 N   0  0  0  0  0  0  0  0  0  0  0  0
   55.5728   -7.9997   -3.1950 N   0  0  0  0  0  0  0  0  0  0  0  0
 23 24  1  0  0  0
 24 25  2  0  0  0
 25 26  1  0  0  0
 26 27  2  0  0  0
 27 17  1  0  0  0
 17 18  2  0  0  0
 18 19  1  0  0  0
 19 20  2  0  0  0
 20 21  1  0  0  0
 21 16  1  0  0  0
 16  1  1  0  0  0
  1  2  1  0  0  0
  2  3  2  0  0  0
  3  8  1  0  0  0
  8  9  2  0  0  0
  9 10  1  0  0  0
 10 11  1  0  0  0
 10 12  2  0  0  0
 12 13  1  0  0  0
 13 14  1  0  0  0
 13 15  2  0  0  0
  3  4  1  0  0  0
  4  5  2  0  0  0
  5  6  1  0  0  0
  6  7  2  0  0  0
 21 22  2  0  0  0
 27 28  1  0  0  0
 28 29  2  0  0  0
 29 24  1  0  0  0
 22 17  1  0  0  0
  6  1  1  0  0  0
 15  8  1  0  0  0
M  END
> <minimizedAffinity>
-9.59755

> <CNNscore>
0.4542800784

> <CNNaffinity>
7.2487363815

> <CNN_VS>
3.2929565907

> <CNNaffinity_variance>
0.2830401063

$$$$
[H]c1c(-c2c([H])c([H])c([H])c(C([H])([H])n3nc(-c4c([H])c(F)c([H])c(F)c4[H])c([H])c([H])c3=O)c2[H])nnc(C([H])([H])[H])c1[H]


 29 32  0  0  0  0  0  0  0  0999 V2000
   54.3874   -4.4276   -7.4601 N   0  0  0  0  0  0  0  0  0  0  0  0
   54.5815   -5.0608   -6.3068 N   0  0  0  0  0  0  0  0  0  0  0  0
   53.6895   -5.8964   -5.7395 C   0  0  0  0  0  0  0  0  0  0  0  0
   52.4936   -6.1135   -6.3937 C   0  0  0  0  0  0  0  0  0  0  0  0
   52.2536   -5.4734   -7.5959 C   0  0  0  0  0  0  0  0  0  0  0  0
   53.2308   -4.6255   -8.1115 C   0  0  0  0  0  0  0  0  0  0  0  0
   53.0756   -4.0206   -9.1866 O   0  0  0  0  0  0  0  0  0  0  0  0
   54.0081   -6.5440   -4.4600 C   0  0  0  0  0  0  0  0  0  0  0  0
   55.0558   -7.3987   -4.2647 C   0  0  0  0  0  0  0  0  0  0  0  0
   55.3039   -7.9812   -3.0224 C   0  0  0  0  0  0  0  0  0  0  0  0
   56.3424   -8.8203   -2.8535 F   0  0  0  0  0  0  0  0  0  0  0  0
   54.4964   -7.7137   -1.9419 C   0  0  0  0  0  0  0  0  0  0  0  0
   53.4373   -6.8531   -2.1292 C   0  0  0  0  0  0  0  0  0  0  0  0
   52.6408   -6.5877   -1.0685 F   0  0  0  0  0  0  0  0  0  0  0  0
   53.2042   -6.2845   -3.3635 C   0  0  0  0  0  0  0  0  0  0  0  0
   55.4383   -3.5792   -7.9286 C   0  0  0  0  0  0  0  0  0  0  0  0
   57.3619   -4.3881  -11.0461 C   0  0  0  0  0  0  0  0  0  0  0  0
   58.2867   -5.2572  -10.4911 C   0  0  0  0  0  0  0  0  0  0  0  0
   58.3039   -5.5842   -9.1605 C   0  0  0  0  0  0  0  0  0  0  0  0
   57.3689   -5.0357   -8.3199 C   0  0  0  0  0  0  0  0  0  0  0  0
   56.4317   -4.1713   -8.8123 C   0  0  0  0  0  0  0  0  0  0  0  0
   56.4464   -3.8675  -10.1526 C   0  0  0  0  0  0  0  0  0  0  0  0
   57.9084   -3.1895  -16.5912 C   0  0  0  0  0  0  0  0  0  0  0  0
   57.7063   -3.5061  -15.1323 C   0  0  0  0  0  0  0  0  0  0  0  0
   56.4428   -3.6455  -14.6034 C   0  0  0  0  0  0  0  0  0  0  0  0
   56.2789   -3.9393  -13.2472 C   0  0  0  0  0  0  0  0  0  0  0  0
   57.3988   -4.0835  -12.4651 C   0  0  0  0  0  0  0  0  0  0  0  0
   58.5942   -3.9338  -13.0483 N   0  0  0  0  0  0  0  0  0  0  0  0
   58.7545   -3.6569  -14.3263 N   0  0  0  0  0  0  0  0  0  0  0  0
 23 24  1  0  0  0
 24 25  2  0  0  0
 25 26  1  0  0  0
 26 27  2  0  0  0
 27 17  1  0  0  0
 17 18  2  0  0  0
 18 19  1  0  0  0
 19 20  2  0  0  0
 20 21  1  0  0  0
 21 16  1  0  0  0
 16  1  1  0  0  0
  1  2  1  0  0  0
  2  3  2  0  0  0
  3  8  1  0  0  0
  8  9  2  0  0  0
  9 10  1  0  0  0
 10 11  1  0  0  0
 10 12  2  0  0  0
 12 13  1  0  0  0
 13 14  1  0  0  0
 13 15  2  0  0  0
  3  4  1  0  0  0
  4  5  2  0  0  0
  5  6  1  0  0  0
  6  7  2  0  0  0
 21 22  2  0  0  0
 27 28  1  0  0  0
 28 29  2  0  0  0
 29 24  1  0  0  0
 22 17  1  0  0  0
  6  1  1  0  0  0
 15  8  1  0  0  0
M  END
> <minimizedAffinity>
-10.16654

> <CNNscore>
0.4344908893

> <CNNaffinity>
6.3837976456

> <CNN_VS>
2.7737019062

> <CNNaffinity_variance>
0.0682567060

$$$$
[H]c1c(-c2c([H])c([H])c([H])c(C([H])([H])n3nc(-c4c([H])c(F)c([H])c(F)c4[H])c([H])c([H])c3=O)c2[H])nnc(C([H])([H])[H])c1[H]


 29 32  0  0  0  0  0  0  0  0999 V2000
   54.4798   -4.4796   -7.3693 N   0  0  0  0  0  0  0  0  0  0  0  0
   54.6401   -5.0851   -6.1961 N   0  0  0  0  0  0  0  0  0  0  0  0
   53.7379   -5.9185   -5.6419 C   0  0  0  0  0  0  0  0  0  0  0  0
   52.5681   -6.1638   -6.3325 C   0  0  0  0  0  0  0  0  0  0  0  0
   52.3636   -5.5530   -7.5562 C   0  0  0  0  0  0  0  0  0  0  0  0
   53.3490   -4.7051   -8.0561 C   0  0  0  0  0  0  0  0  0  0  0  0
   53.2251   -4.1257   -9.1491 O   0  0  0  0  0  0  0  0  0  0  0  0
   54.0184   -6.5343   -4.3380 C   0  0  0  0  0  0  0  0  0  0  0  0
   53.2652   -6.3444   -3.2141 C   0  0  0  0  0  0  0  0  0  0  0  0
   53.5864   -6.9597   -2.0048 C   0  0  0  0  0  0  0  0  0  0  0  0
   52.8296   -6.7579   -0.9105 F   0  0  0  0  0  0  0  0  0  0  0  0
   54.6810   -7.7855   -1.9002 C   0  0  0  0  0  0  0  0  0  0  0  0
   55.4465   -7.9830   -3.0281 C   0  0  0  0  0  0  0  0  0  0  0  0
   56.5241   -8.7948   -2.9289 F   0  0  0  0  0  0  0  0  0  0  0  0
   55.1168   -7.3679   -4.2173 C   0  0  0  0  0  0  0  0  0  0  0  0
   55.5372   -3.6294   -7.8195 C   0  0  0  0  0  0  0  0  0  0  0  0
   57.4023   -4.4123  -10.9789 C   0  0  0  0  0  0  0  0  0  0  0  0
   58.3535   -5.2653  -10.4439 C   0  0  0  0  0  0  0  0  0  0  0  0
   58.4062   -5.5897   -9.1136 C   0  0  0  0  0  0  0  0  0  0  0  0
   57.4817   -5.0550   -8.2526 C   0  0  0  0  0  0  0  0  0  0  0  0
   56.5198   -4.2067   -8.7248 C   0  0  0  0  0  0  0  0  0  0  0  0
   56.4991   -3.9051  -10.0655 C   0  0  0  0  0  0  0  0  0  0  0  0
   57.8034   -3.2215  -16.5380 C   0  0  0  0  0  0  0  0  0  0  0  0
   57.6396   -3.5359  -15.0739 C   0  0  0  0  0  0  0  0  0  0  0  0
   56.3903   -3.6732  -14.5116 C   0  0  0  0  0  0  0  0  0  0  0  0
   56.2621   -3.9650  -13.1511 C   0  0  0  0  0  0  0  0  0  0  0  0
   57.4020   -4.1095  -12.3987 C   0  0  0  0  0  0  0  0  0  0  0  0
   58.5818   -3.9621  -13.0135 N   0  0  0  0  0  0  0  0  0  0  0  0
   58.7086   -3.6869  -14.2957 N   0  0  0  0  0  0  0  0  0  0  0  0
 23 24  1  0  0  0
 24 25  2  0  0  0
 25 26  1  0  0  0
 26 27  2  0  0  0
 27 17  1  0  0  0
 17 18  2  0  0  0
 18 19  1  0  0  0
 19 20  2  0  0  0
 20 21  1  0  0  0
 21 16  1  0  0  0
 16  1  1  0  0  0
  1  2  1  0  0  0
  2  3  2  0  0  0
  3  8  1  0  0  0
  8  9  2  0  0  0
  9 10  1  0  0  0
 10 11  1  0  0  0
 10 12  2  0  0  0
 12 13  1  0  0  0
 13 14  1  0  0  0
 13 15  2  0  0  0
  3  4  1  0  0  0
  4  5  2  0  0  0
  5  6  1  0  0  0
  6  7  2  0  0  0
 21 22  2  0  0  0
 27 28  1  0  0  0
 28 29  2  0  0  0
 29 24  1  0  0  0
 22 17  1  0  0  0
  6  1  1  0  0  0
 15  8  1  0  0  0
M  END
> <minimizedAffinity>
-10.15838

> <CNNscore>
0.4025151134

> <CNNaffinity>
6.3368115425

> <CNN_VS>
2.5506625175

> <CNNaffinity_variance>
0.0761812329

$$$$
[H]c1c([H])c([H])c(-c2c([H])c([H])c(C([H])([H])Sc3nnc(-c4c([H])c([H])c5c(c4[H])O[C@@]([H])(C([H])([H])OC([H])([H])[H])C([H])([H])O5)o3)c([H])c2[H])c(C#N)c1[H]


 34 38  0  0  0  0  0  0  0  0999 V2000
   52.9094   -3.1984   -8.4044 C   0  0  0  0  0  0  0  0  0  0  0  0
   52.2940   -2.1146   -8.8750 N   0  0  0  0  0  0  0  0  0  0  0  0
   51.1696   -1.9595   -8.2104 N   0  0  0  0  0  0  0  0  0  0  0  0
   51.0687   -2.9455   -7.3154 C   0  0  0  0  0  0  0  0  0  0  0  0
   52.1690   -3.6860   -7.4741 O   0  0  0  0  0  0  0  0  0  0  0  0
   57.3218   -4.4797  -12.4470 C   0  0  0  0  0  0  0  0  0  0  0  0
   58.4013   -4.4700  -11.3744 C   0  0  0  0  0  0  0  0  0  0  0  0
   57.8488   -5.1676  -10.2412 O   0  0  0  0  0  0  0  0  0  0  0  0
   56.6377   -4.6971   -9.7658 C   0  0  0  0  0  0  0  0  0  0  0  0
   56.1915   -5.0226   -8.4812 C   0  0  0  0  0  0  0  0  0  0  0  0
   54.9737   -4.5162   -8.0763 C   0  0  0  0  0  0  0  0  0  0  0  0
   54.2022   -3.7159   -8.8863 C   0  0  0  0  0  0  0  0  0  0  0  0
   54.6567   -3.4134  -10.1308 C   0  0  0  0  0  0  0  0  0  0  0  0
   55.8786   -3.8964  -10.5924 C   0  0  0  0  0  0  0  0  0  0  0  0
   56.3204   -3.5728  -11.8668 O   0  0  0  0  0  0  0  0  0  0  0  0
   57.7611   -3.9010  -13.7466 C   0  0  0  0  0  0  0  0  0  0  0  0
   56.0164   -4.8997  -14.9994 C   0  0  0  0  0  0  0  0  0  0  0  0
   57.1703   -4.2308  -14.8881 O   0  0  0  0  0  0  0  0  0  0  0  0
   49.7629   -3.2344   -6.1523 S   0  0  0  0  0  0  0  0  0  0  0  0
   49.7083   -4.9106   -5.5105 C   0  0  0  0  0  0  0  0  0  0  0  0
   51.0391   -5.4294   -5.1357 C   0  0  0  0  0  0  0  0  0  0  0  0
   51.5061   -5.1706   -3.8472 C   0  0  0  0  0  0  0  0  0  0  0  0
   52.7491   -5.6123   -3.4524 C   0  0  0  0  0  0  0  0  0  0  0  0
   53.5802   -6.3168   -4.2854 C   0  0  0  0  0  0  0  0  0  0  0  0
   53.1125   -6.5696   -5.5598 C   0  0  0  0  0  0  0  0  0  0  0  0
   51.8638   -6.1272   -5.9620 C   0  0  0  0  0  0  0  0  0  0  0  0
   54.8957   -6.8142   -3.9141 C   0  0  0  0  0  0  0  0  0  0  0  0
   56.0259   -6.4540   -4.6599 C   0  0  0  0  0  0  0  0  0  0  0  0
   57.2775   -6.9035   -4.3156 C   0  0  0  0  0  0  0  0  0  0  0  0
   57.4841   -7.7245   -3.2287 C   0  0  0  0  0  0  0  0  0  0  0  0
   56.3842   -8.0871   -2.4868 C   0  0  0  0  0  0  0  0  0  0  0  0
   55.1079   -7.6318   -2.8339 C   0  0  0  0  0  0  0  0  0  0  0  0
   53.9865   -8.0504   -2.0356 C   0  0  0  0  0  0  0  0  0  0  0  0
   53.0829   -8.3698   -1.3743 N   0  0  0  0  0  0  0  0  0  0  0  0
 17 18  1  0  0  0
 18 16  1  0  0  0
 16  6  1  0  0  0
  6  7  1  0  0  0
  7  8  1  0  0  0
  8  9  1  0  0  0
  9 10  2  0  0  0
 10 11  1  0  0  0
 11 12  2  0  0  0
 12  1  1  0  0  0
  1  2  2  0  0  0
  2  3  1  0  0  0
  3  4  2  0  0  0
  4 19  1  0  0  0
 19 20  1  0  0  0
 20 21  1  0  0  0
 21 22  2  0  0  0
 22 23  1  0  0  0
 23 24  2  0  0  0
 24 27  1  0  0  0
 27 28  2  0  0  0
 28 29  1  0  0  0
 29 30  2  0  0  0
 30 31  1  0  0  0
 31 32  2  0  0  0
 32 33  1  0  0  0
 33 34  3  0  0  0
 24 25  1  0  0  0
 25 26  2  0  0  0
  4  5  1  0  0  0
 12 13  1  0  0  0
 13 14  2  0  0  0
 14 15  1  0  0  0
 15  6  1  0  0  0
 14  9  1  0  0  0
  5  1  1  0  0  0
 26 21  1  0  0  0
 32 27  1  0  0  0
M  END
> <minimizedAffinity>
-8.71843

> <CNNscore>
0.8539264202

> <CNNaffinity>
7.6323761940

> <CNN_VS>
6.5174875259

> <CNNaffinity_variance>
0.1020085588

$$$$
[H]c1c([H])c([H])c(-c2c([H])c([H])c(C([H])([H])Sc3nnc(-c4c([H])c([H])c5c(c4[H])O[C@@]([H])(C([H])([H])OC([H])([H])[H])C([H])([H])O5)o3)c([H])c2[H])c(C#N)c1[H]


 34 38  0  0  0  0  0  0  0  0999 V2000
   56.5379   -4.2688   -9.8365 C   0  0  0  0  0  0  0  0  0  0  0  0
   55.6321   -3.5363   -9.1902 N   0  0  0  0  0  0  0  0  0  0  0  0
   55.5194   -4.0074   -7.9674 N   0  0  0  0  0  0  0  0  0  0  0  0
   56.3545   -5.0412   -7.8346 C   0  0  0  0  0  0  0  0  0  0  0  0
   56.9622   -5.1637   -9.0177 O   0  0  0  0  0  0  0  0  0  0  0  0
   60.3348   -3.0144  -14.4693 C   0  0  0  0  0  0  0  0  0  0  0  0
   59.5000   -3.8134  -15.4594 C   0  0  0  0  0  0  0  0  0  0  0  0
   58.1242   -3.4912  -15.1777 O   0  0  0  0  0  0  0  0  0  0  0  0
   57.7076   -3.6815  -13.8721 C   0  0  0  0  0  0  0  0  0  0  0  0
   56.3490   -3.7730  -13.5546 C   0  0  0  0  0  0  0  0  0  0  0  0
   56.0096   -3.9632  -12.2309 C   0  0  0  0  0  0  0  0  0  0  0  0
   56.9532   -4.0631  -11.2352 C   0  0  0  0  0  0  0  0  0  0  0  0
   58.2676   -3.9709  -11.5683 C   0  0  0  0  0  0  0  0  0  0  0  0
   58.6682   -3.7792  -12.8882 C   0  0  0  0  0  0  0  0  0  0  0  0
   60.0162   -3.6887  -13.2021 O   0  0  0  0  0  0  0  0  0  0  0  0
   61.8028   -3.1306  -14.6900 C   0  0  0  0  0  0  0  0  0  0  0  0
   63.0149   -3.1431  -16.7251 C   0  0  0  0  0  0  0  0  0  0  0  0
   62.4013   -2.5259  -15.7083 O   0  0  0  0  0  0  0  0  0  0  0  0
   56.6196   -6.0533   -6.4039 S   0  0  0  0  0  0  0  0  0  0  0  0
   55.2681   -7.1783   -6.0393 C   0  0  0  0  0  0  0  0  0  0  0  0
   53.9981   -6.4816   -5.7519 C   0  0  0  0  0  0  0  0  0  0  0  0
   53.1289   -6.2352   -6.8145 C   0  0  0  0  0  0  0  0  0  0  0  0
   51.9414   -5.5702   -6.6063 C   0  0  0  0  0  0  0  0  0  0  0  0
   51.5541   -5.1223   -5.3692 C   0  0  0  0  0  0  0  0  0  0  0  0
   52.4190   -5.3689   -4.3213 C   0  0  0  0  0  0  0  0  0  0  0  0
   53.6144   -6.0366   -4.5254 C   0  0  0  0  0  0  0  0  0  0  0  0
   50.3073   -4.4253   -5.0949 C   0  0  0  0  0  0  0  0  0  0  0  0
   49.4899   -4.8275   -4.0302 C   0  0  0  0  0  0  0  0  0  0  0  0
   48.3159   -4.1723   -3.7484 C   0  0  0  0  0  0  0  0  0  0  0  0
   47.8853   -3.0952   -4.4918 C   0  0  0  0  0  0  0  0  0  0  0  0
   48.6768   -2.6886   -5.5406 C   0  0  0  0  0  0  0  0  0  0  0  0
   49.8729   -3.3531   -5.8311 C   0  0  0  0  0  0  0  0  0  0  0  0
   50.6592   -2.8996   -6.9475 C   0  0  0  0  0  0  0  0  0  0  0  0
   51.3083   -2.5542   -7.8503 N   0  0  0  0  0  0  0  0  0  0  0  0
 17 18  1  0  0  0
 18 16  1  0  0  0
 16  6  1  0  0  0
  6  7  1  0  0  0
  7  8  1  0  0  0
  8  9  1  0  0  0
  9 10  2  0  0  0
 10 11  1  0  0  0
 11 12  2  0  0  0
 12  1  1  0  0  0
  1  2  2  0  0  0
  2  3  1  0  0  0
  3  4  2  0  0  0
  4 19  1  0  0  0
 19 20  1  0  0  0
 20 21  1  0  0  0
 21 22  2  0  0  0
 22 23  1  0  0  0
 23 24  2  0  0  0
 24 27  1  0  0  0
 27 28  2  0  0  0
 28 29  1  0  0  0
 29 30  2  0  0  0
 30 31  1  0  0  0
 31 32  2  0  0  0
 32 33  1  0  0  0
 33 34  3  0  0  0
 24 25  1  0  0  0
 25 26  2  0  0  0
  4  5  1  0  0  0
 12 13  1  0  0  0
 13 14  2  0  0  0
 14 15  1  0  0  0
 15  6  1  0  0  0
 14  9  1  0  0  0
  5  1  1  0  0  0
 26 21  1  0  0  0
 32 27  1  0  0  0
M  END
> <minimizedAffinity>
-9.27620

> <CNNscore>
0.4390277863

> <CNNaffinity>
6.6660699844

> <CNN_VS>
2.9265899658

> <CNNaffinity_variance>
0.2142792195

$$$$
[H]c1c([H])c([H])c(-c2c([H])c([H])c(C([H])([H])Sc3nnc(-c4c([H])c([H])c5c(c4[H])O[C@@]([H])(C([H])([H])OC([H])([H])[H])C([H])([H])O5)o3)c([H])c2[H])c(C#N)c1[H]


 34 38  0  0  0  0  0  0  0  0999 V2000
   53.0355   -3.9404   -8.3400 C   0  0  0  0  0  0  0  0  0  0  0  0
   52.6905   -3.0846   -9.3009 N   0  0  0  0  0  0  0  0  0  0  0  0
   53.6614   -3.0490  -10.1875 N   0  0  0  0  0  0  0  0  0  0  0  0
   54.6260   -3.8832   -9.7909 C   0  0  0  0  0  0  0  0  0  0  0  0
   54.1922   -4.4109   -8.6430 O   0  0  0  0  0  0  0  0  0  0  0  0
   51.4956   -6.7987   -3.1523 C   0  0  0  0  0  0  0  0  0  0  0  0
   50.6502   -5.6260   -2.6771 C   0  0  0  0  0  0  0  0  0  0  0  0
   49.9104   -5.1713   -3.8269 O   0  0  0  0  0  0  0  0  0  0  0  0
   50.6576   -4.8548   -4.9475 C   0  0  0  0  0  0  0  0  0  0  0  0
   50.1248   -4.0632   -5.9696 C   0  0  0  0  0  0  0  0  0  0  0  0
   50.9296   -3.7892   -7.0562 C   0  0  0  0  0  0  0  0  0  0  0  0
   52.2162   -4.2645   -7.1589 C   0  0  0  0  0  0  0  0  0  0  0  0
   52.7120   -5.0320   -6.1529 C   0  0  0  0  0  0  0  0  0  0  0  0
   51.9450   -5.3405   -5.0322 C   0  0  0  0  0  0  0  0  0  0  0  0
   52.4744   -6.1256   -4.0188 O   0  0  0  0  0  0  0  0  0  0  0  0
   52.2460   -7.4794   -2.0612 C   0  0  0  0  0  0  0  0  0  0  0  0
   51.2475   -9.5808   -1.6165 C   0  0  0  0  0  0  0  0  0  0  0  0
   51.6590   -8.3583   -1.2590 O   0  0  0  0  0  0  0  0  0  0  0  0
   56.1649   -4.2342  -10.5969 S   0  0  0  0  0  0  0  0  0  0  0  0
   56.1594   -3.9114  -12.3634 C   0  0  0  0  0  0  0  0  0  0  0  0
   57.5165   -3.8227  -12.9388 C   0  0  0  0  0  0  0  0  0  0  0  0
   58.5993   -4.1431  -12.1202 C   0  0  0  0  0  0  0  0  0  0  0  0
   59.8873   -4.0567  -12.5991 C   0  0  0  0  0  0  0  0  0  0  0  0
   60.1724   -3.6596  -13.8806 C   0  0  0  0  0  0  0  0  0  0  0  0
   59.0963   -3.3434  -14.6860 C   0  0  0  0  0  0  0  0  0  0  0  0
   57.7994   -3.4281  -14.2092 C   0  0  0  0  0  0  0  0  0  0  0  0
   61.5126   -3.5621  -14.4375 C   0  0  0  0  0  0  0  0  0  0  0  0
   62.0207   -4.5881  -15.2453 C   0  0  0  0  0  0  0  0  0  0  0  0
   63.2789   -4.5065  -15.7905 C   0  0  0  0  0  0  0  0  0  0  0  0
   64.0989   -3.4210  -15.5730 C   0  0  0  0  0  0  0  0  0  0  0  0
   63.6144   -2.4057  -14.7818 C   0  0  0  0  0  0  0  0  0  0  0  0
   62.3338   -2.4848  -14.2245 C   0  0  0  0  0  0  0  0  0  0  0  0
   61.8771   -1.4041  -13.3916 C   0  0  0  0  0  0  0  0  0  0  0  0
   61.5311   -0.5219  -12.7150 N   0  0  0  0  0  0  0  0  0  0  0  0
 17 18  1  0  0  0
 18 16  1  0  0  0
 16  6  1  0  0  0
  6  7  1  0  0  0
  7  8  1  0  0  0
  8  9  1  0  0  0
  9 10  2  0  0  0
 10 11  1  0  0  0
 11 12  2  0  0  0
 12  1  1  0  0  0
  1  2  2  0  0  0
  2  3  1  0  0  0
  3  4  2  0  0  0
  4 19  1  0  0  0
 19 20  1  0  0  0
 20 21  1  0  0  0
 21 22  2  0  0  0
 22 23  1  0  0  0
 23 24  2  0  0  0
 24 27  1  0  0  0
 27 28  2  0  0  0
 28 29  1  0  0  0
 29 30  2  0  0  0
 30 31  1  0  0  0
 31 32  2  0  0  0
 32 33  1  0  0  0
 33 34  3  0  0  0
 24 25  1  0  0  0
 25 26  2  0  0  0
  4  5  1  0  0  0
 12 13  1  0  0  0
 13 14  2  0  0  0
 14 15  1  0  0  0
 15  6  1  0  0  0
 14  9  1  0  0  0
  5  1  1  0  0  0
 26 21  1  0  0  0
 32 27  1  0  0  0
M  END
> <minimizedAffinity>
-7.54719

> <CNNscore>
0.4342067540

> <CNNaffinity>
6.3937854767

> <CNN_VS>
2.7762248516

> <CNNaffinity_variance>
0.2568763793

$$$$
[H]c1c([H])c([H])c(-c2c([H])c([H])c(C([H])([H])Sc3nnc(-c4c([H])c([H])c5c(c4[H])O[C@@]([H])(C([H])([H])OC([H])([H])[H])C([H])([H])O5)o3)c([H])c2[H])c(C#N)c1[H]


 34 38  0  0  0  0  0  0  0  0999 V2000
   56.5593   -4.2914  -10.2896 C   0  0  0  0  0  0  0  0  0  0  0  0
   55.3869   -3.7913   -9.9019 N   0  0  0  0  0  0  0  0  0  0  0  0
   55.1513   -4.2009   -8.6745 N   0  0  0  0  0  0  0  0  0  0  0  0
   56.1748   -4.9627   -8.2798 C   0  0  0  0  0  0  0  0  0  0  0  0
   57.0202   -4.9886   -9.3136 O   0  0  0  0  0  0  0  0  0  0  0  0
   56.8608   -3.7892  -16.3814 C   0  0  0  0  0  0  0  0  0  0  0  0
   58.0708   -2.8688  -16.3138 C   0  0  0  0  0  0  0  0  0  0  0  0
   58.9434   -3.4245  -15.3110 O   0  0  0  0  0  0  0  0  0  0  0  0
   58.3822   -3.6398  -14.0649 C   0  0  0  0  0  0  0  0  0  0  0  0
   59.1843   -3.8073  -12.9318 C   0  0  0  0  0  0  0  0  0  0  0  0
   58.5534   -4.0177  -11.7230 C   0  0  0  0  0  0  0  0  0  0  0  0
   57.1838   -4.0663  -11.6052 C   0  0  0  0  0  0  0  0  0  0  0  0
   56.4252   -3.9010  -12.7206 C   0  0  0  0  0  0  0  0  0  0  0  0
   57.0079   -3.6853  -13.9669 C   0  0  0  0  0  0  0  0  0  0  0  0
   56.2113   -3.5192  -15.0902 O   0  0  0  0  0  0  0  0  0  0  0  0
   55.8960   -3.4350  -17.4589 C   0  0  0  0  0  0  0  0  0  0  0  0
   54.5856   -1.5167  -17.9217 C   0  0  0  0  0  0  0  0  0  0  0  0
   54.8673   -2.6284  -17.2315 O   0  0  0  0  0  0  0  0  0  0  0  0
   56.3907   -5.7785   -6.7212 S   0  0  0  0  0  0  0  0  0  0  0  0
   55.0928   -6.9533   -6.3211 C   0  0  0  0  0  0  0  0  0  0  0  0
   53.8207   -6.3035   -5.9468 C   0  0  0  0  0  0  0  0  0  0  0  0
   52.8938   -6.0437   -6.9561 C   0  0  0  0  0  0  0  0  0  0  0  0
   51.7009   -5.4203   -6.6661 C   0  0  0  0  0  0  0  0  0  0  0  0
   51.3635   -5.0282   -5.3958 C   0  0  0  0  0  0  0  0  0  0  0  0
   52.2853   -5.2878   -4.4010 C   0  0  0  0  0  0  0  0  0  0  0  0
   53.4864   -5.9138   -4.6874 C   0  0  0  0  0  0  0  0  0  0  0  0
   50.1138   -4.3769   -5.0357 C   0  0  0  0  0  0  0  0  0  0  0  0
   49.3525   -4.8505   -3.9589 C   0  0  0  0  0  0  0  0  0  0  0  0
   48.1768   -4.2393   -3.5965 C   0  0  0  0  0  0  0  0  0  0  0  0
   47.6899   -3.1390   -4.2672 C   0  0  0  0  0  0  0  0  0  0  0  0
   48.4259   -2.6624   -5.3269 C   0  0  0  0  0  0  0  0  0  0  0  0
   49.6235   -3.2817   -5.6995 C   0  0  0  0  0  0  0  0  0  0  0  0
   50.3505   -2.7553   -6.8240 C   0  0  0  0  0  0  0  0  0  0  0  0
   50.9602   -2.3335   -7.7219 N   0  0  0  0  0  0  0  0  0  0  0  0
 17 18  1  0  0  0
 18 16  1  0  0  0
 16  6  1  0  0  0
  6  7  1  0  0  0
  7  8  1  0  0  0
  8  9  1  0  0  0
  9 10  2  0  0  0
 10 11  1  0  0  0
 11 12  2  0  0  0
 12  1  1  0  0  0
  1  2  2  0  0  0
  2  3  1  0  0  0
  3  4  2  0  0  0
  4 19  1  0  0  0
 19 20  1  0  0  0
 20 21  1  0  0  0
 21 22  2  0  0  0
 22 23  1  0  0  0
 23 24  2  0  0  0
 24 27  1  0  0  0
 27 28  2  0  0  0
 28 29  1  0  0  0
 29 30  2  0  0  0
 30 31  1  0  0  0
 31 32  2  0  0  0
 32 33  1  0  0  0
 33 34  3  0  0  0
 24 25  1  0  0  0
 25 26  2  0  0  0
  4  5  1  0  0  0
 12 13  1  0  0  0
 13 14  2  0  0  0
 14 15  1  0  0  0
 15  6  1  0  0  0
 14  9  1  0  0  0
  5  1  1  0  0  0
 26 21  1  0  0  0
 32 27  1  0  0  0
M  END
> <minimizedAffinity>
-9.47103

> <CNNscore>
0.4216949940

> <CNNaffinity>
6.8323683739

> <CNN_VS>
2.8811755180

> <CNNaffinity_variance>
0.0816145763

$$$$
[H]c1c([H])c([H])c(-c2c([H])c([H])c(C([H])([H])Sc3nnc(-c4c([H])c([H])c5c(c4[H])O[C@@]([H])(C([H])([H])OC([H])([H])[H])C([H])([H])O5)o3)c([H])c2[H])c(C#N)c1[H]


 34 38  0  0  0  0  0  0  0  0999 V2000
   52.7160   -3.4890   -7.9753 C   0  0  0  0  0  0  0  0  0  0  0  0
   51.9336   -2.5171   -8.4422 N   0  0  0  0  0  0  0  0  0  0  0  0
   50.8519   -2.4661   -7.6957 N   0  0  0  0  0  0  0  0  0  0  0  0
   50.9454   -3.4066   -6.7521 C   0  0  0  0  0  0  0  0  0  0  0  0
   52.1162   -4.0127   -6.9667 O   0  0  0  0  0  0  0  0  0  0  0  0
   56.8777   -4.6255  -12.3161 C   0  0  0  0  0  0  0  0  0  0  0  0
   58.0374   -4.3136  -11.3815 C   0  0  0  0  0  0  0  0  0  0  0  0
   57.7138   -4.9291  -10.1195 O   0  0  0  0  0  0  0  0  0  0  0  0
   56.4928   -4.5847   -9.5676 C   0  0  0  0  0  0  0  0  0  0  0  0
   56.2278   -4.7996   -8.2116 C   0  0  0  0  0  0  0  0  0  0  0  0
   54.9877   -4.4305   -7.7326 C   0  0  0  0  0  0  0  0  0  0  0  0
   54.0243   -3.8680   -8.5373 C   0  0  0  0  0  0  0  0  0  0  0  0
   54.3051   -3.6691   -9.8521 C   0  0  0  0  0  0  0  0  0  0  0  0
   55.5401   -4.0222  -10.3901 C   0  0  0  0  0  0  0  0  0  0  0  0
   55.8020   -3.8085  -11.7353 O   0  0  0  0  0  0  0  0  0  0  0  0
   57.0936   -4.1653  -13.7156 C   0  0  0  0  0  0  0  0  0  0  0  0
   56.4517   -4.3000  -15.9917 C   0  0  0  0  0  0  0  0  0  0  0  0
   56.5212   -4.7786  -14.7437 O   0  0  0  0  0  0  0  0  0  0  0  0
   49.7785   -3.7907   -5.4746 S   0  0  0  0  0  0  0  0  0  0  0  0
   49.9639   -5.4368   -4.7811 C   0  0  0  0  0  0  0  0  0  0  0  0
   51.1350   -5.5598   -3.8900 C   0  0  0  0  0  0  0  0  0  0  0  0
   52.2953   -6.1367   -4.4060 C   0  0  0  0  0  0  0  0  0  0  0  0
   53.4094   -6.2955   -3.6126 C   0  0  0  0  0  0  0  0  0  0  0  0
   53.4408   -5.9035   -2.2986 C   0  0  0  0  0  0  0  0  0  0  0  0
   52.2890   -5.3335   -1.7935 C   0  0  0  0  0  0  0  0  0  0  0  0
   51.1661   -5.1721   -2.5868 C   0  0  0  0  0  0  0  0  0  0  0  0
   54.5939   -6.0391   -1.4224 C   0  0  0  0  0  0  0  0  0  0  0  0
   55.6406   -5.1093   -1.4795 C   0  0  0  0  0  0  0  0  0  0  0  0
   56.7307   -5.2143   -0.6502 C   0  0  0  0  0  0  0  0  0  0  0  0
   56.8499   -6.2305    0.2724 C   0  0  0  0  0  0  0  0  0  0  0  0
   55.8305   -7.1514    0.3403 C   0  0  0  0  0  0  0  0  0  0  0  0
   54.7188   -7.0483   -0.5024 C   0  0  0  0  0  0  0  0  0  0  0  0
   53.6851   -8.0443   -0.4039 C   0  0  0  0  0  0  0  0  0  0  0  0
   52.8365   -8.8357   -0.3079 N   0  0  0  0  0  0  0  0  0  0  0  0
 17 18  1  0  0  0
 18 16  1  0  0  0
 16  6  1  0  0  0
  6  7  1  0  0  0
  7  8  1  0  0  0
  8  9  1  0  0  0
  9 10  2  0  0  0
 10 11  1  0  0  0
 11 12  2  0  0  0
 12  1  1  0  0  0
  1  2  2  0  0  0
  2  3  1  0  0  0
  3  4  2  0  0  0
  4 19  1  0  0  0
 19 20  1  0  0  0
 20 21  1  0  0  0
 21 22  2  0  0  0
 22 23  1  0  0  0
 23 24  2  0  0  0
 24 27  1  0  0  0
 27 28  2  0  0  0
 28 29  1  0  0  0
 29 30  2  0  0  0
 30 31  1  0  0  0
 31 32  2  0  0  0
 32 33  1  0  0  0
 33 34  3  0  0  0
 24 25  1  0  0  0
 25 26  2  0  0  0
  4  5  1  0  0  0
 12 13  1  0  0  0
 13 14  2  0  0  0
 14 15  1  0  0  0
 15  6  1  0  0  0
 14  9  1  0  0  0
  5  1  1  0  0  0
 26 21  1  0  0  0
 32 27  1  0  0  0
M  END
> <minimizedAffinity>
-9.15369

> <CNNscore>
0.4187805057

> <CNNaffinity>
7.0374975204

> <CNN_VS>
2.9471666813

> <CNNaffinity_variance>
0.3362058401

$$$$
[H]c1c([H])c([H])c(-c2c([H])c([H])c(C([H])([H])Sc3nnc(-c4c([H])c([H])c5c(c4[H])O[C@@]([H])(C([H])([H])OC([H])([H])[H])C([H])([H])O5)o3)c([H])c2[H])c(C#N)c1[H]


 34 38  0  0  0  0  0  0  0  0999 V2000
   56.7729   -4.9334   -8.5090 C   0  0  0  0  0  0  0  0  0  0  0  0
   57.5349   -5.2113   -7.4522 N   0  0  0  0  0  0  0  0  0  0  0  0
   58.7097   -5.6122   -7.8868 N   0  0  0  0  0  0  0  0  0  0  0  0
   58.6961   -5.5896   -9.2221 C   0  0  0  0  0  0  0  0  0  0  0  0
   57.4763   -5.1627   -9.5597 O   0  0  0  0  0  0  0  0  0  0  0  0
   50.9181   -4.8108   -6.7315 C   0  0  0  0  0  0  0  0  0  0  0  0
   50.7919   -3.3213   -7.0165 C   0  0  0  0  0  0  0  0  0  0  0  0
   51.4617   -3.0936   -8.2717 O   0  0  0  0  0  0  0  0  0  0  0  0
   52.7720   -3.5304   -8.3524 C   0  0  0  0  0  0  0  0  0  0  0  0
   53.6337   -3.0472   -9.3419 C   0  0  0  0  0  0  0  0  0  0  0  0
   54.9265   -3.5287   -9.3596 C   0  0  0  0  0  0  0  0  0  0  0  0
   55.3812   -4.4530   -8.4481 C   0  0  0  0  0  0  0  0  0  0  0  0
   54.5251   -4.9081   -7.4957 C   0  0  0  0  0  0  0  0  0  0  0  0
   53.2092   -4.4570   -7.4300 C   0  0  0  0  0  0  0  0  0  0  0  0
   52.3553   -4.9369   -6.4480 O   0  0  0  0  0  0  0  0  0  0  0  0
   50.1746   -5.2558   -5.5207 C   0  0  0  0  0  0  0  0  0  0  0  0
   49.2015   -4.6238   -3.4556 C   0  0  0  0  0  0  0  0  0  0  0  0
   50.1117   -4.5034   -4.4296 O   0  0  0  0  0  0  0  0  0  0  0  0
   60.0044   -6.0280  -10.3345 S   0  0  0  0  0  0  0  0  0  0  0  0
   61.5772   -6.3479   -9.5290 C   0  0  0  0  0  0  0  0  0  0  0  0
   61.5957   -7.6223   -8.7833 C   0  0  0  0  0  0  0  0  0  0  0  0
   61.8468   -7.5775   -7.4120 C   0  0  0  0  0  0  0  0  0  0  0  0
   61.8968   -8.7377   -6.6723 C   0  0  0  0  0  0  0  0  0  0  0  0
   61.7063   -9.9763   -7.2296 C   0  0  0  0  0  0  0  0  0  0  0  0
   61.4586  -10.0142   -8.5875 C   0  0  0  0  0  0  0  0  0  0  0  0
   61.4078   -8.8507   -9.3359 C   0  0  0  0  0  0  0  0  0  0  0  0
   61.7384  -11.2293   -6.4915 C   0  0  0  0  0  0  0  0  0  0  0  0
   60.5611  -11.7644   -5.9521 C   0  0  0  0  0  0  0  0  0  0  0  0
   60.5707  -12.9532   -5.2639 C   0  0  0  0  0  0  0  0  0  0  0  0
   61.7285  -13.6743   -5.0702 C   0  0  0  0  0  0  0  0  0  0  0  0
   62.8927  -13.1618   -5.5935 C   0  0  0  0  0  0  0  0  0  0  0  0
   62.8873  -11.9515   -6.2948 C   0  0  0  0  0  0  0  0  0  0  0  0
   64.1329  -11.4489   -6.8107 C   0  0  0  0  0  0  0  0  0  0  0  0
   65.1452  -11.0311   -7.2062 N   0  0  0  0  0  0  0  0  0  0  0  0
 17 18  1  0  0  0
 18 16  1  0  0  0
 16  6  1  0  0  0
  6  7  1  0  0  0
  7  8  1  0  0  0
  8  9  1  0  0  0
  9 10  2  0  0  0
 10 11  1  0  0  0
 11 12  2  0  0  0
 12  1  1  0  0  0
  1  2  2  0  0  0
  2  3  1  0  0  0
  3  4  2  0  0  0
  4 19  1  0  0  0
 19 20  1  0  0  0
 20 21  1  0  0  0
 21 22  2  0  0  0
 22 23  1  0  0  0
 23 24  2  0  0  0
 24 27  1  0  0  0
 27 28  2  0  0  0
 28 29  1  0  0  0
 29 30  2  0  0  0
 30 31  1  0  0  0
 31 32  2  0  0  0
 32 33  1  0  0  0
 33 34  3  0  0  0
 24 25  1  0  0  0
 25 26  2  0  0  0
  4  5  1  0  0  0
 12 13  1  0  0  0
 13 14  2  0  0  0
 14 15  1  0  0  0
 15  6  1  0  0  0
 14  9  1  0  0  0
  5  1  1  0  0  0
 26 21  1  0  0  0
 32 27  1  0  0  0
M  END
> <minimizedAffinity>
-7.17592

> <CNNscore>
0.3949222267

> <CNNaffinity>
6.1101431847

> <CNN_VS>
2.4130313396

> <CNNaffinity_variance>
0.1333931386

$$$$
[H]c1c([H])c([H])c(-c2c([H])c([H])c(C([H])([H])Sc3nnc(-c4c([H])c([H])c5c(c4[H])O[C@@]([H])(C([H])([H])OC([H])([H])[H])C([H])([H])O5)o3)c([H])c2[H])c(C#N)c1[H]


 34 38  0  0  0  0  0  0  0  0999 V2000
   55.5555   -4.1410   -8.9603 C   0  0  0  0  0  0  0  0  0  0  0  0
   55.0200   -2.9536   -9.2396 N   0  0  0  0  0  0  0  0  0  0  0  0
   53.8431   -2.8862   -8.6561 N   0  0  0  0  0  0  0  0  0  0  0  0
   53.6288   -4.0320   -8.0043 C   0  0  0  0  0  0  0  0  0  0  0  0
   54.7165   -4.7759   -8.2225 O   0  0  0  0  0  0  0  0  0  0  0  0
   61.2874   -6.2373   -8.5095 C   0  0  0  0  0  0  0  0  0  0  0  0
   61.2317   -6.8838   -9.8859 C   0  0  0  0  0  0  0  0  0  0  0  0
   60.5784   -5.9340  -10.7504 O   0  0  0  0  0  0  0  0  0  0  0  0
   59.3377   -5.4837  -10.3355 C   0  0  0  0  0  0  0  0  0  0  0  0
   58.4533   -4.8777  -11.2331 C   0  0  0  0  0  0  0  0  0  0  0  0
   57.2337   -4.4540  -10.7467 C   0  0  0  0  0  0  0  0  0  0  0  0
   56.8719   -4.6088   -9.4287 C   0  0  0  0  0  0  0  0  0  0  0  0
   57.7484   -5.2006   -8.5752 C   0  0  0  0  0  0  0  0  0  0  0  0
   58.9933   -5.6477   -9.0108 C   0  0  0  0  0  0  0  0  0  0  0  0
   59.8698   -6.2488   -8.1197 O   0  0  0  0  0  0  0  0  0  0  0  0
   62.0428   -7.0325   -7.5025 C   0  0  0  0  0  0  0  0  0  0  0  0
   62.0421   -9.3999   -7.5824 C   0  0  0  0  0  0  0  0  0  0  0  0
   61.6202   -8.2244   -7.1008 O   0  0  0  0  0  0  0  0  0  0  0  0
   52.2111   -4.4938   -7.0462 S   0  0  0  0  0  0  0  0  0  0  0  0
   52.2397   -6.1922   -6.4636 C   0  0  0  0  0  0  0  0  0  0  0  0
   53.3017   -6.4439   -5.4688 C   0  0  0  0  0  0  0  0  0  0  0  0
   54.5267   -6.9307   -5.9246 C   0  0  0  0  0  0  0  0  0  0  0  0
   55.5442   -7.2032   -5.0378 C   0  0  0  0  0  0  0  0  0  0  0  0
   55.4137   -7.0152   -3.6855 C   0  0  0  0  0  0  0  0  0  0  0  0
   54.1985   -6.5336   -3.2404 C   0  0  0  0  0  0  0  0  0  0  0  0
   53.1722   -6.2585   -4.1278 C   0  0  0  0  0  0  0  0  0  0  0  0
   56.4597   -7.2772   -2.7093 C   0  0  0  0  0  0  0  0  0  0  0  0
   56.7420   -8.5898   -2.3081 C   0  0  0  0  0  0  0  0  0  0  0  0
   57.7354   -8.8566   -1.3975 C   0  0  0  0  0  0  0  0  0  0  0  0
   58.4985   -7.8562   -0.8366 C   0  0  0  0  0  0  0  0  0  0  0  0
   58.2331   -6.5622   -1.2203 C   0  0  0  0  0  0  0  0  0  0  0  0
   57.2225   -6.2860   -2.1471 C   0  0  0  0  0  0  0  0  0  0  0  0
   56.9726   -4.9152   -2.5057 C   0  0  0  0  0  0  0  0  0  0  0  0
   56.7474   -3.8122   -2.8032 N   0  0  0  0  0  0  0  0  0  0  0  0
 17 18  1  0  0  0
 18 16  1  0  0  0
 16  6  1  0  0  0
  6  7  1  0  0  0
  7  8  1  0  0  0
  8  9  1  0  0  0
  9 10  2  0  0  0
 10 11  1  0  0  0
 11 12  2  0  0  0
 12  1  1  0  0  0
  1  2  2  0  0  0
  2  3  1  0  0  0
  3  4  2  0  0  0
  4 19  1  0  0  0
 19 20  1  0  0  0
 20 21  1  0  0  0
 21 22  2  0  0  0
 22 23  1  0  0  0
 23 24  2  0  0  0
 24 27  1  0  0  0
 27 28  2  0  0  0
 28 29  1  0  0  0
 29 30  2  0  0  0
 30 31  1  0  0  0
 31 32  2  0  0  0
 32 33  1  0  0  0
 33 34  3  0  0  0
 24 25  1  0  0  0
 25 26  2  0  0  0
  4  5  1  0  0  0
 12 13  1  0  0  0
 13 14  2  0  0  0
 14 15  1  0  0  0
 15  6  1  0  0  0
 14  9  1  0  0  0
  5  1  1  0  0  0
 26 21  1  0  0  0
 32 27  1  0  0  0
M  END
> <minimizedAffinity>
-7.59805

> <CNNscore>
0.3885931373

> <CNNaffinity>
6.4981079102

> <CNN_VS>
2.5251200199

> <CNNaffinity_variance>
0.1506499648

$$$$
[H]c1c([H])c([H])c(-c2c([H])c([H])c(C([H])([H])Sc3nnc(-c4c([H])c([H])c5c(c4[H])O[C@@]([H])(C([H])([H])OC([H])([H])[H])C([H])([H])O5)o3)c([H])c2[H])c(C#N)c1[H]


 34 38  0  0  0  0  0  0  0  0999 V2000
   58.5585   -5.4105   -9.2687 C   0  0  0  0  0  0  0  0  0  0  0  0
   59.1603   -5.5495   -8.0883 N   0  0  0  0  0  0  0  0  0  0  0  0
   60.3532   -6.0640   -8.2935 N   0  0  0  0  0  0  0  0  0  0  0  0
   60.5116   -6.2528   -9.6061 C   0  0  0  0  0  0  0  0  0  0  0  0
   59.3742   -5.8333  -10.1670 O   0  0  0  0  0  0  0  0  0  0  0  0
   52.6760   -4.3006   -7.9967 C   0  0  0  0  0  0  0  0  0  0  0  0
   52.6657   -3.0270   -8.8295 C   0  0  0  0  0  0  0  0  0  0  0  0
   53.3881   -3.3310  -10.0385 O   0  0  0  0  0  0  0  0  0  0  0  0
   54.6656   -3.8366   -9.8755 C   0  0  0  0  0  0  0  0  0  0  0  0
   55.5895   -3.8141  -10.9248 C   0  0  0  0  0  0  0  0  0  0  0  0
   56.8444   -4.3362  -10.6877 C   0  0  0  0  0  0  0  0  0  0  0  0
   57.2036   -4.8677   -9.4709 C   0  0  0  0  0  0  0  0  0  0  0  0
   56.2884   -4.8786   -8.4663 C   0  0  0  0  0  0  0  0  0  0  0  0
   55.0069   -4.3651   -8.6488 C   0  0  0  0  0  0  0  0  0  0  0  0
   54.0911   -4.3878   -7.6073 O   0  0  0  0  0  0  0  0  0  0  0  0
   51.8659   -4.2101   -6.7506 C   0  0  0  0  0  0  0  0  0  0  0  0
   51.0389   -5.6074   -5.0260 C   0  0  0  0  0  0  0  0  0  0  0  0
   52.0258   -5.0725   -5.7550 O   0  0  0  0  0  0  0  0  0  0  0  0
   61.9207   -6.9175  -10.4510 S   0  0  0  0  0  0  0  0  0  0  0  0
   62.4327   -8.5359   -9.8649 C   0  0  0  0  0  0  0  0  0  0  0  0
   62.8375   -8.5345   -8.4447 C   0  0  0  0  0  0  0  0  0  0  0  0
   64.0488   -7.9308   -8.1074 C   0  0  0  0  0  0  0  0  0  0  0  0
   64.4846   -7.9201   -6.8013 C   0  0  0  0  0  0  0  0  0  0  0  0
   63.7679   -8.4898   -5.7801 C   0  0  0  0  0  0  0  0  0  0  0  0
   62.5698   -9.0862   -6.1204 C   0  0  0  0  0  0  0  0  0  0  0  0
   62.1273   -9.1001   -7.4321 C   0  0  0  0  0  0  0  0  0  0  0  0
   64.1784   -8.4961   -4.3847 C   0  0  0  0  0  0  0  0  0  0  0  0
   63.7909   -7.4578   -3.5273 C   0  0  0  0  0  0  0  0  0  0  0  0
   64.1582   -7.4547   -2.2036 C   0  0  0  0  0  0  0  0  0  0  0  0
   64.9198   -8.4635   -1.6557 C   0  0  0  0  0  0  0  0  0  0  0  0
   65.3082   -9.4898   -2.4849 C   0  0  0  0  0  0  0  0  0  0  0  0
   64.9366   -9.4969   -3.8334 C   0  0  0  0  0  0  0  0  0  0  0  0
   65.3796  -10.5848   -4.6643 C   0  0  0  0  0  0  0  0  0  0  0  0
   65.7543  -11.4498   -5.3478 N   0  0  0  0  0  0  0  0  0  0  0  0
 17 18  1  0  0  0
 18 16  1  0  0  0
 16  6  1  0  0  0
  6  7  1  0  0  0
  7  8  1  0  0  0
  8  9  1  0  0  0
  9 10  2  0  0  0
 10 11  1  0  0  0
 11 12  2  0  0  0
 12  1  1  0  0  0
  1  2  2  0  0  0
  2  3  1  0  0  0
  3  4  2  0  0  0
  4 19  1  0  0  0
 19 20  1  0  0  0
 20 21  1  0  0  0
 21 22  2  0  0  0
 22 23  1  0  0  0
 23 24  2  0  0  0
 24 27  1  0  0  0
 27 28  2  0  0  0
 28 29  1  0  0  0
 29 30  2  0  0  0
 30 31  1  0  0  0
 31 32  2  0  0  0
 32 33  1  0  0  0
 33 34  3  0  0  0
 24 25  1  0  0  0
 25 26  2  0  0  0
  4  5  1  0  0  0
 12 13  1  0  0  0
 13 14  2  0  0  0
 14 15  1  0  0  0
 15  6  1  0  0  0
 14  9  1  0  0  0
  5  1  1  0  0  0
 26 21  1  0  0  0
 32 27  1  0  0  0
M  END
> <minimizedAffinity>
-6.93173

> <CNNscore>
0.3718803525

> <CNNaffinity>
5.8274130821

> <CNN_VS>
2.1671004295

> <CNNaffinity_variance>
0.2266173661

$$$$
[H]c1c([H])c([H])c(-c2c([H])c([H])c(C([H])([H])Sc3nnc(-c4c([H])c([H])c5c(c4[H])O[C@@]([H])(C([H])([H])OC([H])([H])[H])C([H])([H])O5)o3)c([H])c2[H])c(C#N)c1[H]


 34 38  0  0  0  0  0  0  0  0999 V2000
   53.7380   -3.4255   -8.9854 C   0  0  0  0  0  0  0  0  0  0  0  0
   53.1368   -2.2886   -9.3327 N   0  0  0  0  0  0  0  0  0  0  0  0
   52.0211   -2.1867   -8.6438 N   0  0  0  0  0  0  0  0  0  0  0  0
   51.9115   -3.2600   -7.8566 C   0  0  0  0  0  0  0  0  0  0  0  0
   52.9978   -3.9968   -8.1039 O   0  0  0  0  0  0  0  0  0  0  0  0
   59.4667   -5.5760   -8.8817 C   0  0  0  0  0  0  0  0  0  0  0  0
   59.3180   -6.2310  -10.2473 C   0  0  0  0  0  0  0  0  0  0  0  0
   58.6207   -5.2803  -11.0756 O   0  0  0  0  0  0  0  0  0  0  0  0
   57.4130   -4.8149  -10.5866 C   0  0  0  0  0  0  0  0  0  0  0  0
   56.4796   -4.2060  -11.4310 C   0  0  0  0  0  0  0  0  0  0  0  0
   55.2972   -3.7670  -10.8717 C   0  0  0  0  0  0  0  0  0  0  0  0
   55.0177   -3.9095   -9.5325 C   0  0  0  0  0  0  0  0  0  0  0  0
   55.9406   -4.5044   -8.7316 C   0  0  0  0  0  0  0  0  0  0  0  0
   57.1512   -4.9668   -9.2417 C   0  0  0  0  0  0  0  0  0  0  0  0
   58.0764   -5.5709   -8.4033 O   0  0  0  0  0  0  0  0  0  0  0  0
   60.2765   -6.3722   -7.9186 C   0  0  0  0  0  0  0  0  0  0  0  0
   62.1129   -7.8504   -7.6878 C   0  0  0  0  0  0  0  0  0  0  0  0
   61.5026   -6.7828   -8.2163 O   0  0  0  0  0  0  0  0  0  0  0  0
   50.6112   -3.6493   -6.7168 S   0  0  0  0  0  0  0  0  0  0  0  0
   50.5670   -5.3726   -6.2136 C   0  0  0  0  0  0  0  0  0  0  0  0
   51.5084   -5.6789   -5.1179 C   0  0  0  0  0  0  0  0  0  0  0  0
   52.7796   -6.1436   -5.4546 C   0  0  0  0  0  0  0  0  0  0  0  0
   53.6893   -6.4648   -4.4722 C   0  0  0  0  0  0  0  0  0  0  0  0
   53.4034   -6.3483   -3.1359 C   0  0  0  0  0  0  0  0  0  0  0  0
   52.1432   -5.8882   -2.8088 C   0  0  0  0  0  0  0  0  0  0  0  0
   51.2247   -5.5644   -3.7927 C   0  0  0  0  0  0  0  0  0  0  0  0
   54.3311   -6.6638   -2.0609 C   0  0  0  0  0  0  0  0  0  0  0  0
   54.0244   -7.6668   -1.1317 C   0  0  0  0  0  0  0  0  0  0  0  0
   54.8948   -7.9871   -0.1184 C   0  0  0  0  0  0  0  0  0  0  0  0
   56.1036   -7.3443    0.0352 C   0  0  0  0  0  0  0  0  0  0  0  0
   56.4189   -6.3571   -0.8691 C   0  0  0  0  0  0  0  0  0  0  0  0
   55.5354   -6.0276   -1.9024 C   0  0  0  0  0  0  0  0  0  0  0  0
   55.9034   -4.9776   -2.8147 C   0  0  0  0  0  0  0  0  0  0  0  0
   56.1807   -4.1152   -3.5462 N   0  0  0  0  0  0  0  0  0  0  0  0
 17 18  1  0  0  0
 18 16  1  0  0  0
 16  6  1  0  0  0
  6  7  1  0  0  0
  7  8  1  0  0  0
  8  9  1  0  0  0
  9 10  2  0  0  0
 10 11  1  0  0  0
 11 12  2  0  0  0
 12  1  1  0  0  0
  1  2  2  0  0  0
  2  3  1  0  0  0
  3  4  2  0  0  0
  4 19  1  0  0  0
 19 20  1  0  0  0
 20 21  1  0  0  0
 21 22  2  0  0  0
 22 23  1  0  0  0
 23 24  2  0  0  0
 24 27  1  0  0  0
 27 28  2  0  0  0
 28 29  1  0  0  0
 29 30  2  0  0  0
 30 31  1  0  0  0
 31 32  2  0  0  0
 32 33  1  0  0  0
 33 34  3  0  0  0
 24 25  1  0  0  0
 25 26  2  0  0  0
  4  5  1  0  0  0
 12 13  1  0  0  0
 13 14  2  0  0  0
 14 15  1  0  0  0
 15  6  1  0  0  0
 14  9  1  0  0  0
  5  1  1  0  0  0
 26 21  1  0  0  0
 32 27  1  0  0  0
M  END
> <minimizedAffinity>
-8.28370

> <CNNscore>
0.3633829057

> <CNNaffinity>
6.8532180786

> <CNN_VS>
2.4903423786

> <CNNaffinity_variance>
0.0996325165

$$$$
[H]c1c([H])c([H])c(C2([H])C([H])([H])[C@]2([H])N([H])C([H])([H])c2c([H])c([H])c(OC([H])([H])[H])c3c([H])c([H])c([H])c([H])c23)c([H])c1[H]


 24 27  0  0  0  0  0  0  0  0999 V2000
   52.3818   -4.2187   -7.3081 C   0  0  0  0  0  0  0  0  0  0  0  0
   52.6017   -3.4361   -8.4140 C   0  0  0  0  0  0  0  0  0  0  0  0
   53.8092   -3.4468   -9.0982 C   0  0  0  0  0  0  0  0  0  0  0  0
   54.8433   -4.2556   -8.6833 C   0  0  0  0  0  0  0  0  0  0  0  0
   54.6279   -5.0551   -7.5590 C   0  0  0  0  0  0  0  0  0  0  0  0
   55.6701   -5.8621   -7.1515 C   0  0  0  0  0  0  0  0  0  0  0  0
   55.4404   -6.6492   -6.0345 C   0  0  0  0  0  0  0  0  0  0  0  0
   54.2470   -6.6401   -5.3568 C   0  0  0  0  0  0  0  0  0  0  0  0
   53.2149   -5.8289   -5.7753 C   0  0  0  0  0  0  0  0  0  0  0  0
   53.4243   -5.0265   -6.8998 C   0  0  0  0  0  0  0  0  0  0  0  0
   50.1040   -3.3749   -7.0776 C   0  0  0  0  0  0  0  0  0  0  0  0
   51.1615   -4.2024   -6.6237 O   0  0  0  0  0  0  0  0  0  0  0  0
   56.1478   -4.2998   -9.3966 C   0  0  0  0  0  0  0  0  0  0  0  0
   56.2881   -3.1173  -10.1879 N   0  0  0  0  0  0  0  0  0  0  0  0
   56.6789   -2.3046   -9.6493 H   0  0  0  0  0  0  0  0  0  0  0  0
   56.9839   -3.3207  -11.4292 C   0  0  0  0  0  0  0  0  0  0  0  0
   57.7450   -4.6507  -11.4781 C   0  0  0  0  0  0  0  0  0  0  0  0
   56.6229   -4.3632  -12.4037 C   0  0  0  0  0  0  0  0  0  0  0  0
   56.9166   -4.0829  -13.8289 C   0  0  0  0  0  0  0  0  0  0  0  0
   58.0231   -3.3887  -14.2605 C   0  0  0  0  0  0  0  0  0  0  0  0
   58.2721   -3.1427  -15.5822 C   0  0  0  0  0  0  0  0  0  0  0  0
   57.4058   -3.5915  -16.5389 C   0  0  0  0  0  0  0  0  0  0  0  0
   56.2874   -4.2906  -16.1385 C   0  0  0  0  0  0  0  0  0  0  0  0
   56.0499   -4.5311  -14.7972 C   0  0  0  0  0  0  0  0  0  0  0  0
 11 12  1  0  0  0
 12  1  1  0  0  0
  1  2  2  0  0  0
  2  3  1  0  0  0
  3  4  2  0  0  0
  4 13  1  0  0  0
 13 14  1  0  0  0
 14 16  1  0  0  0
 16 17  1  0  0  0
 17 18  1  0  0  0
 18 19  1  0  0  0
 19 20  2  0  0  0
 20 21  1  0  0  0
 21 22  2  0  0  0
 22 23  1  0  0  0
 23 24  2  0  0  0
  4  5  1  0  0  0
  5  6  2  0  0  0
  6  7  1  0  0  0
  7  8  2  0  0  0
  8  9  1  0  0  0
  9 10  2  0  0  0
 10  1  1  0  0  0
 18 16  1  0  0  0
 24 19  1  0  0  0
 10  5  1  0  0  0
 14 15  1  0  0  0
M  END
> <minimizedAffinity>
-8.11817

> <CNNscore>
0.4444724023

> <CNNaffinity>
5.8829116821

> <CNN_VS>
2.6147918701

> <CNNaffinity_variance>
0.0758079886

$$$$
[H]c1c([H])c([H])c(C2([H])C([H])([H])[C@]2([H])N([H])C([H])([H])c2c([H])c([H])c(OC([H])([H])[H])c3c([H])c([H])c([H])c([H])c23)c([H])c1[H]


 24 27  0  0  0  0  0  0  0  0999 V2000
   57.6791   -4.8618   -8.6072 C   0  0  0  0  0  0  0  0  0  0  0  0
   56.7069   -4.8148   -7.6394 C   0  0  0  0  0  0  0  0  0  0  0  0
   55.3818   -4.5286   -7.9369 C   0  0  0  0  0  0  0  0  0  0  0  0
   54.9925   -4.2778   -9.2335 C   0  0  0  0  0  0  0  0  0  0  0  0
   55.9753   -4.3235  -10.2241 C   0  0  0  0  0  0  0  0  0  0  0  0
   55.5750   -4.0711  -11.5201 C   0  0  0  0  0  0  0  0  0  0  0  0
   56.5620   -4.1204  -12.4913 C   0  0  0  0  0  0  0  0  0  0  0  0
   57.8728   -4.4035  -12.1991 C   0  0  0  0  0  0  0  0  0  0  0  0
   58.2581   -4.6536  -10.9001 C   0  0  0  0  0  0  0  0  0  0  0  0
   57.2791   -4.6091   -9.9042 C   0  0  0  0  0  0  0  0  0  0  0  0
   59.6457   -6.2807   -8.8765 C   0  0  0  0  0  0  0  0  0  0  0  0
   59.0129   -5.1512   -8.2993 O   0  0  0  0  0  0  0  0  0  0  0  0
   53.5804   -3.9762   -9.5908 C   0  0  0  0  0  0  0  0  0  0  0  0
   53.2802   -2.6300   -9.2141 N   0  0  0  0  0  0  0  0  0  0  0  0
   52.9565   -2.0388  -10.0197 H   0  0  0  0  0  0  0  0  0  0  0  0
   52.4014   -2.5192   -8.0820 C   0  0  0  0  0  0  0  0  0  0  0  0
   51.1522   -1.6795   -8.3734 C   0  0  0  0  0  0  0  0  0  0  0  0
   51.0583   -3.1193   -8.0319 C   0  0  0  0  0  0  0  0  0  0  0  0
   50.5463   -3.5128   -6.6980 C   0  0  0  0  0  0  0  0  0  0  0  0
   51.0132   -4.5941   -5.9871 C   0  0  0  0  0  0  0  0  0  0  0  0
   50.5241   -4.9368   -4.7571 C   0  0  0  0  0  0  0  0  0  0  0  0
   49.5305   -4.1952   -4.1827 C   0  0  0  0  0  0  0  0  0  0  0  0
   49.0413   -3.1053   -4.8699 C   0  0  0  0  0  0  0  0  0  0  0  0
   49.5469   -2.7718   -6.1135 C   0  0  0  0  0  0  0  0  0  0  0  0
 11 12  1  0  0  0
 12  1  1  0  0  0
  1  2  2  0  0  0
  2  3  1  0  0  0
  3  4  2  0  0  0
  4 13  1  0  0  0
 13 14  1  0  0  0
 14 16  1  0  0  0
 16 17  1  0  0  0
 17 18  1  0  0  0
 18 19  1  0  0  0
 19 20  2  0  0  0
 20 21  1  0  0  0
 21 22  2  0  0  0
 22 23  1  0  0  0
 23 24  2  0  0  0
  4  5  1  0  0  0
  5  6  2  0  0  0
  6  7  1  0  0  0
  7  8  2  0  0  0
  8  9  1  0  0  0
  9 10  2  0  0  0
 10  1  1  0  0  0
 18 16  1  0  0  0
 24 19  1  0  0  0
 10  5  1  0  0  0
 14 15  1  0  0  0
M  END
> <minimizedAffinity>
-9.82595

> <CNNscore>
0.3070152104

> <CNNaffinity>
5.8003191948

> <CNN_VS>
1.7807862759

> <CNNaffinity_variance>
0.0766512081

$$$$
[H]c1c([H])c([H])c(C2([H])C([H])([H])[C@]2([H])N([H])C([H])([H])c2c([H])c([H])c(OC([H])([H])[H])c3c([H])c([H])c([H])c([H])c23)c([H])c1[H]


 24 27  0  0  0  0  0  0  0  0999 V2000
   57.2612   -4.4721  -11.7772 C   0  0  0  0  0  0  0  0  0  0  0  0
   55.9751   -3.9964  -11.7180 C   0  0  0  0  0  0  0  0  0  0  0  0
   55.2665   -3.9296  -10.5265 C   0  0  0  0  0  0  0  0  0  0  0  0
   55.8392   -4.3454   -9.3455 C   0  0  0  0  0  0  0  0  0  0  0  0
   57.1474   -4.8308   -9.3969 C   0  0  0  0  0  0  0  0  0  0  0  0
   57.7124   -5.2447   -8.2082 C   0  0  0  0  0  0  0  0  0  0  0  0
   59.0108   -5.7235   -8.2762 C   0  0  0  0  0  0  0  0  0  0  0  0
   59.7133   -5.7901   -9.4534 C   0  0  0  0  0  0  0  0  0  0  0  0
   59.1361   -5.3731  -10.6330 C   0  0  0  0  0  0  0  0  0  0  0  0
   57.8271   -4.8865  -10.5881 C   0  0  0  0  0  0  0  0  0  0  0  0
   57.6178   -3.6830  -14.0584 C   0  0  0  0  0  0  0  0  0  0  0  0
   57.9692   -4.5362  -12.9823 O   0  0  0  0  0  0  0  0  0  0  0  0
   55.1134   -4.2804   -8.0488 C   0  0  0  0  0  0  0  0  0  0  0  0
   53.7562   -4.6813   -8.2521 N   0  0  0  0  0  0  0  0  0  0  0  0
   53.6229   -5.7223   -8.2091 H   0  0  0  0  0  0  0  0  0  0  0  0
   52.8084   -3.9857   -7.4250 C   0  0  0  0  0  0  0  0  0  0  0  0
   52.0228   -2.9122   -8.1872 C   0  0  0  0  0  0  0  0  0  0  0  0
   51.3498   -4.0918   -7.5919 C   0  0  0  0  0  0  0  0  0  0  0  0
   50.5188   -3.9123   -6.3781 C   0  0  0  0  0  0  0  0  0  0  0  0
   50.5734   -4.7431   -5.2830 C   0  0  0  0  0  0  0  0  0  0  0  0
   49.7957   -4.5563   -4.1741 C   0  0  0  0  0  0  0  0  0  0  0  0
   48.9178   -3.5106   -4.1198 C   0  0  0  0  0  0  0  0  0  0  0  0
   48.8394   -2.6599   -5.2014 C   0  0  0  0  0  0  0  0  0  0  0  0
   49.6333   -2.8627   -6.3159 C   0  0  0  0  0  0  0  0  0  0  0  0
 11 12  1  0  0  0
 12  1  1  0  0  0
  1  2  2  0  0  0
  2  3  1  0  0  0
  3  4  2  0  0  0
  4 13  1  0  0  0
 13 14  1  0  0  0
 14 16  1  0  0  0
 16 17  1  0  0  0
 17 18  1  0  0  0
 18 19  1  0  0  0
 19 20  2  0  0  0
 20 21  1  0  0  0
 21 22  2  0  0  0
 22 23  1  0  0  0
 23 24  2  0  0  0
  4  5  1  0  0  0
  5  6  2  0  0  0
  6  7  1  0  0  0
  7  8  2  0  0  0
  8  9  1  0  0  0
  9 10  2  0  0  0
 10  1  1  0  0  0
 18 16  1  0  0  0
 24 19  1  0  0  0
 10  5  1  0  0  0
 14 15  1  0  0  0
M  END
> <minimizedAffinity>
-9.77080

> <CNNscore>
0.2862538695

> <CNNaffinity>
5.6447019577

> <CNN_VS>
1.6158177853

> <CNNaffinity_variance>
0.0323768333

$$$$
[H]c1c([H])c([H])c(C2([H])C([H])([H])[C@]2([H])N([H])C([H])([H])c2c([H])c([H])c(OC([H])([H])[H])c3c([H])c([H])c([H])c([H])c23)c([H])c1[H]


 24 27  0  0  0  0  0  0  0  0999 V2000
   57.0366   -4.5366  -11.6233 C   0  0  0  0  0  0  0  0  0  0  0  0
   55.7615   -4.0617  -11.4432 C   0  0  0  0  0  0  0  0  0  0  0  0
   55.1766   -3.9736  -10.1876 C   0  0  0  0  0  0  0  0  0  0  0  0
   55.8670   -4.3665   -9.0631 C   0  0  0  0  0  0  0  0  0  0  0  0
   57.1648   -4.8509   -9.2374 C   0  0  0  0  0  0  0  0  0  0  0  0
   57.8484   -5.2417   -8.1045 C   0  0  0  0  0  0  0  0  0  0  0  0
   59.1349   -5.7198   -8.2944 C   0  0  0  0  0  0  0  0  0  0  0  0
   59.7151   -5.8075   -9.5351 C   0  0  0  0  0  0  0  0  0  0  0  0
   59.0204   -5.4134  -10.6579 C   0  0  0  0  0  0  0  0  0  0  0  0
   57.7210   -4.9279  -10.4899 C   0  0  0  0  0  0  0  0  0  0  0  0
   57.0229   -3.9588  -13.9938 C   0  0  0  0  0  0  0  0  0  0  0  0
   57.6195   -4.6223  -12.8924 O   0  0  0  0  0  0  0  0  0  0  0  0
   55.2756   -4.2783   -7.7011 C   0  0  0  0  0  0  0  0  0  0  0  0
   54.4004   -5.3905   -7.4986 N   0  0  0  0  0  0  0  0  0  0  0  0
   54.7020   -6.0142   -6.7092 H   0  0  0  0  0  0  0  0  0  0  0  0
   53.0115   -5.0338   -7.3981 C   0  0  0  0  0  0  0  0  0  0  0  0
   52.0780   -6.2498   -7.4175 C   0  0  0  0  0  0  0  0  0  0  0  0
   52.1692   -5.3591   -6.2355 C   0  0  0  0  0  0  0  0  0  0  0  0
   51.0476   -4.4373   -5.9381 C   0  0  0  0  0  0  0  0  0  0  0  0
   50.6647   -3.4059   -6.7639 C   0  0  0  0  0  0  0  0  0  0  0  0
   49.6255   -2.5684   -6.4671 C   0  0  0  0  0  0  0  0  0  0  0  0
   48.9179   -2.7361   -5.3102 C   0  0  0  0  0  0  0  0  0  0  0  0
   49.2770   -3.7609   -4.4614 C   0  0  0  0  0  0  0  0  0  0  0  0
   50.3309   -4.5996   -4.7764 C   0  0  0  0  0  0  0  0  0  0  0  0
 11 12  1  0  0  0
 12  1  1  0  0  0
  1  2  2  0  0  0
  2  3  1  0  0  0
  3  4  2  0  0  0
  4 13  1  0  0  0
 13 14  1  0  0  0
 14 16  1  0  0  0
 16 17  1  0  0  0
 17 18  1  0  0  0
 18 19  1  0  0  0
 19 20  2  0  0  0
 20 21  1  0  0  0
 21 22  2  0  0  0
 22 23  1  0  0  0
 23 24  2  0  0  0
  4  5  1  0  0  0
  5  6  2  0  0  0
  6  7  1  0  0  0
  7  8  2  0  0  0
  8  9  1  0  0  0
  9 10  2  0  0  0
 10  1  1  0  0  0
 18 16  1  0  0  0
 24 19  1  0  0  0
 10  5  1  0  0  0
 14 15  1  0  0  0
M  END
> <minimizedAffinity>
-10.05502

> <CNNscore>
0.2855821252

> <CNNaffinity>
5.6891303062

> <CNN_VS>
1.6247138977

> <CNNaffinity_variance>
0.0590820499

$$$$
[H]c1c([H])c([H])c(C2([H])C([H])([H])[C@]2([H])N([H])C([H])([H])c2c([H])c([H])c(OC([H])([H])[H])c3c([H])c([H])c([H])c([H])c23)c([H])c1[H]


 24 27  0  0  0  0  0  0  0  0999 V2000
   58.8245   -5.4267   -9.6740 C   0  0  0  0  0  0  0  0  0  0  0  0
   58.4950   -5.5117   -8.3443 C   0  0  0  0  0  0  0  0  0  0  0  0
   57.2651   -5.0890   -7.8597 C   0  0  0  0  0  0  0  0  0  0  0  0
   56.3197   -4.5616   -8.7104 C   0  0  0  0  0  0  0  0  0  0  0  0
   56.6468   -4.4716  -10.0647 C   0  0  0  0  0  0  0  0  0  0  0  0
   55.6927   -3.9420  -10.9090 C   0  0  0  0  0  0  0  0  0  0  0  0
   56.0327   -3.8596  -12.2497 C   0  0  0  0  0  0  0  0  0  0  0  0
   57.2483   -4.2773  -12.7308 C   0  0  0  0  0  0  0  0  0  0  0  0
   58.1916   -4.8042  -11.8758 C   0  0  0  0  0  0  0  0  0  0  0  0
   57.8702   -4.8968  -10.5192 C   0  0  0  0  0  0  0  0  0  0  0  0
   60.8398   -6.7754   -9.4036 C   0  0  0  0  0  0  0  0  0  0  0  0
   60.0666   -5.8552  -10.1550 O   0  0  0  0  0  0  0  0  0  0  0  0
   54.9881   -4.1065   -8.2282 C   0  0  0  0  0  0  0  0  0  0  0  0
   54.2332   -5.2423   -7.7990 N   0  0  0  0  0  0  0  0  0  0  0  0
   54.6750   -5.7502   -6.9927 H   0  0  0  0  0  0  0  0  0  0  0  0
   52.8426   -4.9670   -7.5609 C   0  0  0  0  0  0  0  0  0  0  0  0
   52.0078   -6.2361   -7.3537 C   0  0  0  0  0  0  0  0  0  0  0  0
   52.1688   -5.2279   -6.2784 C   0  0  0  0  0  0  0  0  0  0  0  0
   51.0231   -4.3547   -5.9303 C   0  0  0  0  0  0  0  0  0  0  0  0
   50.2536   -4.5149   -4.8014 C   0  0  0  0  0  0  0  0  0  0  0  0
   49.2008   -3.6954   -4.5022 C   0  0  0  0  0  0  0  0  0  0  0  0
   48.8737   -2.6653   -5.3383 C   0  0  0  0  0  0  0  0  0  0  0  0
   49.6258   -2.4783   -6.4781 C   0  0  0  0  0  0  0  0  0  0  0  0
   50.6879   -3.3163   -6.7665 C   0  0  0  0  0  0  0  0  0  0  0  0
 11 12  1  0  0  0
 12  1  1  0  0  0
  1  2  2  0  0  0
  2  3  1  0  0  0
  3  4  2  0  0  0
  4 13  1  0  0  0
 13 14  1  0  0  0
 14 16  1  0  0  0
 16 17  1  0  0  0
 17 18  1  0  0  0
 18 19  1  0  0  0
 19 20  2  0  0  0
 20 21  1  0  0  0
 21 22  2  0  0  0
 22 23  1  0  0  0
 23 24  2  0  0  0
  4  5  1  0  0  0
  5  6  2  0  0  0
  6  7  1  0  0  0
  7  8  2  0  0  0
  8  9  1  0  0  0
  9 10  2  0  0  0
 10  1  1  0  0  0
 18 16  1  0  0  0
 24 19  1  0  0  0
 10  5  1  0  0  0
 14 15  1  0  0  0
M  END
> <minimizedAffinity>
-10.19613

> <CNNscore>
0.2816270292

> <CNNaffinity>
5.5773062706

> <CNN_VS>
1.5707201958

> <CNNaffinity_variance>
0.0562333688

$$$$
[H]c1c([H])c([H])c(C2([H])C([H])([H])[C@]2([H])N([H])C([H])([H])c2c([H])c([H])c(OC([H])([H])[H])c3c([H])c([H])c([H])c([H])c23)c([H])c1[H]


 24 27  0  0  0  0  0  0  0  0999 V2000
   51.3927   -5.6395   -5.6497 C   0  0  0  0  0  0  0  0  0  0  0  0
   52.4515   -6.2720   -6.2522 C   0  0  0  0  0  0  0  0  0  0  0  0
   53.0960   -5.7402   -7.3603 C   0  0  0  0  0  0  0  0  0  0  0  0
   52.6880   -4.5416   -7.9009 C   0  0  0  0  0  0  0  0  0  0  0  0
   51.6116   -3.8915   -7.2940 C   0  0  0  0  0  0  0  0  0  0  0  0
   51.2105   -2.6910   -7.8430 C   0  0  0  0  0  0  0  0  0  0  0  0
   50.1412   -2.0587   -7.2293 C   0  0  0  0  0  0  0  0  0  0  0  0
   49.5027   -2.5828   -6.1333 C   0  0  0  0  0  0  0  0  0  0  0  0
   49.9143   -3.7829   -5.5957 C   0  0  0  0  0  0  0  0  0  0  0  0
   50.9909   -4.4382   -6.1986 C   0  0  0  0  0  0  0  0  0  0  0  0
   51.4607   -6.3647   -3.3209 C   0  0  0  0  0  0  0  0  0  0  0  0
   50.7481   -6.1820   -4.5326 O   0  0  0  0  0  0  0  0  0  0  0  0
   53.3601   -3.9372   -9.0823 C   0  0  0  0  0  0  0  0  0  0  0  0
   54.6895   -3.5561   -8.7194 N   0  0  0  0  0  0  0  0  0  0  0  0
   54.7601   -2.5573   -8.4023 H   0  0  0  0  0  0  0  0  0  0  0  0
   55.3275   -4.4564   -7.7982 C   0  0  0  0  0  0  0  0  0  0  0  0
   56.8540   -4.3144   -7.7821 C   0  0  0  0  0  0  0  0  0  0  0  0
   56.0331   -4.0145   -6.5843 C   0  0  0  0  0  0  0  0  0  0  0  0
   56.0563   -4.9551   -5.4393 C   0  0  0  0  0  0  0  0  0  0  0  0
   55.7642   -4.5929   -4.1448 C   0  0  0  0  0  0  0  0  0  0  0  0
   55.7926   -5.4801   -3.1048 C   0  0  0  0  0  0  0  0  0  0  0  0
   56.1209   -6.7878   -3.3271 C   0  0  0  0  0  0  0  0  0  0  0  0
   56.4189   -7.1823   -4.6137 C   0  0  0  0  0  0  0  0  0  0  0  0
   56.3855   -6.2722   -5.6549 C   0  0  0  0  0  0  0  0  0  0  0  0
 11 12  1  0  0  0
 12  1  1  0  0  0
  1  2  2  0  0  0
  2  3  1  0  0  0
  3  4  2  0  0  0
  4 13  1  0  0  0
 13 14  1  0  0  0
 14 16  1  0  0  0
 16 17  1  0  0  0
 17 18  1  0  0  0
 18 19  1  0  0  0
 19 20  2  0  0  0
 20 21  1  0  0  0
 21 22  2  0  0  0
 22 23  1  0  0  0
 23 24  2  0  0  0
  4  5  1  0  0  0
  5  6  2  0  0  0
  6  7  1  0  0  0
  7  8  2  0  0  0
  8  9  1  0  0  0
  9 10  2  0  0  0
 10  1  1  0  0  0
 18 16  1  0  0  0
 24 19  1  0  0  0
 10  5  1  0  0  0
 14 15  1  0  0  0
M  END
> <minimizedAffinity>
-9.15174

> <CNNscore>
0.2692227662

> <CNNaffinity>
6.1238431931

> <CNN_VS>
1.6486779451

> <CNNaffinity_variance>
0.1015473381

$$$$
[H]c1c([H])c([H])c(C2([H])C([H])([H])[C@]2([H])N([H])C([H])([H])c2c([H])c([H])c(OC([H])([H])[H])c3c([H])c([H])c([H])c([H])c23)c([H])c1[H]


 24 27  0  0  0  0  0  0  0  0999 V2000
   49.1963   -3.0829   -5.0663 C   0  0  0  0  0  0  0  0  0  0  0  0
   49.4592   -2.5794   -6.3158 C   0  0  0  0  0  0  0  0  0  0  0  0
   50.4679   -3.0902   -7.1207 C   0  0  0  0  0  0  0  0  0  0  0  0
   51.2512   -4.1354   -6.6853 C   0  0  0  0  0  0  0  0  0  0  0  0
   50.9904   -4.6536   -5.4153 C   0  0  0  0  0  0  0  0  0  0  0  0
   51.7805   -5.7009   -4.9882 C   0  0  0  0  0  0  0  0  0  0  0  0
   51.5089   -6.2037   -3.7260 C   0  0  0  0  0  0  0  0  0  0  0  0
   50.5118   -5.7002   -2.9287 C   0  0  0  0  0  0  0  0  0  0  0  0
   49.7305   -4.6538   -3.3683 C   0  0  0  0  0  0  0  0  0  0  0  0
   49.9867   -4.1309   -4.6384 C   0  0  0  0  0  0  0  0  0  0  0  0
   46.9083   -3.1930   -4.2258 C   0  0  0  0  0  0  0  0  0  0  0  0
   48.1775   -2.5627   -4.2607 O   0  0  0  0  0  0  0  0  0  0  0  0
   52.3351   -4.7141   -7.5237 C   0  0  0  0  0  0  0  0  0  0  0  0
   52.5156   -3.8974   -8.6833 N   0  0  0  0  0  0  0  0  0  0  0  0
   52.0717   -2.9497   -8.5933 H   0  0  0  0  0  0  0  0  0  0  0  0
   53.8780   -3.8097   -9.1333 C   0  0  0  0  0  0  0  0  0  0  0  0
   54.5837   -2.5333   -8.6607 C   0  0  0  0  0  0  0  0  0  0  0  0
   55.0394   -3.8775   -8.2315 C   0  0  0  0  0  0  0  0  0  0  0  0
   56.2961   -4.4269   -8.7928 C   0  0  0  0  0  0  0  0  0  0  0  0
   57.2967   -4.9830   -8.0299 C   0  0  0  0  0  0  0  0  0  0  0  0
   58.4478   -5.4835   -8.5720 C   0  0  0  0  0  0  0  0  0  0  0  0
   58.6431   -5.4451   -9.9238 C   0  0  0  0  0  0  0  0  0  0  0  0
   57.6588   -4.8941  -10.7158 C   0  0  0  0  0  0  0  0  0  0  0  0
   56.4998   -4.3919  -10.1518 C   0  0  0  0  0  0  0  0  0  0  0  0
 11 12  1  0  0  0
 12  1  1  0  0  0
  1  2  2  0  0  0
  2  3  1  0  0  0
  3  4  2  0  0  0
  4 13  1  0  0  0
 13 14  1  0  0  0
 14 16  1  0  0  0
 16 17  1  0  0  0
 17 18  1  0  0  0
 18 19  1  0  0  0
 19 20  2  0  0  0
 20 21  1  0  0  0
 21 22  2  0  0  0
 22 23  1  0  0  0
 23 24  2  0  0  0
  4  5  1  0  0  0
  5  6  2  0  0  0
  6  7  1  0  0  0
  7  8  2  0  0  0
  8  9  1  0  0  0
  9 10  2  0  0  0
 10  1  1  0  0  0
 18 16  1  0  0  0
 24 19  1  0  0  0
 10  5  1  0  0  0
 14 15  1  0  0  0
M  END
> <minimizedAffinity>
-10.34388

> <CNNscore>
0.2679151297

> <CNNaffinity>
6.0070419312

> <CNN_VS>
1.6093773842

> <CNNaffinity_variance>
0.0335624889

$$$$
[H]c1c([H])c([H])c(C2([H])C([H])([H])[C@]2([H])N([H])C([H])([H])c2c([H])c([H])c(OC([H])([H])[H])c3c([H])c([H])c([H])c([H])c23)c([H])c1[H]


 24 27  0  0  0  0  0  0  0  0999 V2000
   49.1257   -4.0264   -4.1607 C   0  0  0  0  0  0  0  0  0  0  0  0
   49.5953   -5.0410   -3.3645 C   0  0  0  0  0  0  0  0  0  0  0  0
   50.7319   -5.7685   -3.6888 C   0  0  0  0  0  0  0  0  0  0  0  0
   51.4370   -5.4924   -4.8386 C   0  0  0  0  0  0  0  0  0  0  0  0
   50.9661   -4.4618   -5.6543 C   0  0  0  0  0  0  0  0  0  0  0  0
   51.6798   -4.1927   -6.8040 C   0  0  0  0  0  0  0  0  0  0  0  0
   51.1995   -3.1672   -7.6024 C   0  0  0  0  0  0  0  0  0  0  0  0
   50.0759   -2.4465   -7.2833 C   0  0  0  0  0  0  0  0  0  0  0  0
   49.3731   -2.7264   -6.1317 C   0  0  0  0  0  0  0  0  0  0  0  0
   49.8394   -3.7568   -5.3114 C   0  0  0  0  0  0  0  0  0  0  0  0
   46.7781   -3.9745   -3.4976 C   0  0  0  0  0  0  0  0  0  0  0  0
   47.9790   -3.2973   -3.8270 O   0  0  0  0  0  0  0  0  0  0  0  0
   52.6639   -6.2452   -5.2138 C   0  0  0  0  0  0  0  0  0  0  0  0
   53.7936   -5.6466   -4.5737 N   0  0  0  0  0  0  0  0  0  0  0  0
   54.2275   -6.2628   -3.8421 H   0  0  0  0  0  0  0  0  0  0  0  0
   54.7755   -5.1239   -5.4841 C   0  0  0  0  0  0  0  0  0  0  0  0
   56.2035   -5.5657   -5.1432 C   0  0  0  0  0  0  0  0  0  0  0  0
   55.5505   -5.9609   -6.4145 C   0  0  0  0  0  0  0  0  0  0  0  0
   55.9925   -5.3287   -7.6798 C   0  0  0  0  0  0  0  0  0  0  0  0
   57.2810   -5.3909   -8.1576 C   0  0  0  0  0  0  0  0  0  0  0  0
   57.6643   -4.7988   -9.3289 C   0  0  0  0  0  0  0  0  0  0  0  0
   56.7540   -4.1094  -10.0794 C   0  0  0  0  0  0  0  0  0  0  0  0
   55.4543   -4.0288   -9.6276 C   0  0  0  0  0  0  0  0  0  0  0  0
   55.0826   -4.6335   -8.4404 C   0  0  0  0  0  0  0  0  0  0  0  0
 11 12  1  0  0  0
 12  1  1  0  0  0
  1  2  2  0  0  0
  2  3  1  0  0  0
  3  4  2  0  0  0
  4 13  1  0  0  0
 13 14  1  0  0  0
 14 16  1  0  0  0
 16 17  1  0  0  0
 17 18  1  0  0  0
 18 19  1  0  0  0
 19 20  2  0  0  0
 20 21  1  0  0  0
 21 22  2  0  0  0
 22 23  1  0  0  0
 23 24  2  0  0  0
  4  5  1  0  0  0
  5  6  2  0  0  0
  6  7  1  0  0  0
  7  8  2  0  0  0
  8  9  1  0  0  0
  9 10  2  0  0  0
 10  1  1  0  0  0
 18 16  1  0  0  0
 24 19  1  0  0  0
 10  5  1  0  0  0
 14 15  1  0  0  0
M  END
> <minimizedAffinity>
-9.65838

> <CNNscore>
0.2603137195

> <CNNaffinity>
6.0026478767

> <CNN_VS>
1.5625716448

> <CNNaffinity_variance>
0.1214710698

$$$$
[H]c1c([H])c([H])c(C2([H])C([H])([H])[C@]2([H])N([H])C([H])([H])c2c([H])c([H])c(OC([H])([H])[H])c3c([H])c([H])c([H])c([H])c23)c([H])c1[H]


 24 27  0  0  0  0  0  0  0  0999 V2000
   52.5534   -5.5145   -6.7499 C   0  0  0  0  0  0  0  0  0  0  0  0
   53.3518   -6.2141   -5.8799 C   0  0  0  0  0  0  0  0  0  0  0  0
   54.7063   -5.9447   -5.7411 C   0  0  0  0  0  0  0  0  0  0  0  0
   55.3035   -4.9511   -6.4839 C   0  0  0  0  0  0  0  0  0  0  0  0
   54.4984   -4.2346   -7.3714 C   0  0  0  0  0  0  0  0  0  0  0  0
   55.1062   -3.2409   -8.1109 C   0  0  0  0  0  0  0  0  0  0  0  0
   54.2936   -2.5393   -8.9868 C   0  0  0  0  0  0  0  0  0  0  0  0
   52.9541   -2.8040   -9.1253 C   0  0  0  0  0  0  0  0  0  0  0  0
   52.3606   -3.7995   -8.3801 C   0  0  0  0  0  0  0  0  0  0  0  0
   53.1611   -4.5202   -7.4902 C   0  0  0  0  0  0  0  0  0  0  0  0
   50.3713   -5.9090   -5.7319 C   0  0  0  0  0  0  0  0  0  0  0  0
   51.1886   -5.7919   -6.8841 O   0  0  0  0  0  0  0  0  0  0  0  0
   56.7500   -4.6288   -6.3554 C   0  0  0  0  0  0  0  0  0  0  0  0
   57.5061   -5.5497   -7.1455 N   0  0  0  0  0  0  0  0  0  0  0  0
   57.0310   -6.4791   -7.2629 H   0  0  0  0  0  0  0  0  0  0  0  0
   57.9540   -5.0150   -8.4023 C   0  0  0  0  0  0  0  0  0  0  0  0
   59.1760   -5.7506   -8.9647 C   0  0  0  0  0  0  0  0  0  0  0  0
   57.8744   -5.7504   -9.6749 C   0  0  0  0  0  0  0  0  0  0  0  0
   57.7260   -4.9445  -10.9097 C   0  0  0  0  0  0  0  0  0  0  0  0
   56.5145   -4.5299  -11.4125 C   0  0  0  0  0  0  0  0  0  0  0  0
   56.4038   -3.7864  -12.5547 C   0  0  0  0  0  0  0  0  0  0  0  0
   57.5236   -3.4238  -13.2487 C   0  0  0  0  0  0  0  0  0  0  0  0
   58.7529   -3.8239  -12.7707 C   0  0  0  0  0  0  0  0  0  0  0  0
   58.8478   -4.5758  -11.6135 C   0  0  0  0  0  0  0  0  0  0  0  0
 11 12  1  0  0  0
 12  1  1  0  0  0
  1  2  2  0  0  0
  2  3  1  0  0  0
  3  4  2  0  0  0
  4 13  1  0  0  0
 13 14  1  0  0  0
 14 16  1  0  0  0
 16 17  1  0  0  0
 17 18  1  0  0  0
 18 19  1  0  0  0
 19 20  2  0  0  0
 20 21  1  0  0  0
 21 22  2  0  0  0
 22 23  1  0  0  0
 23 24  2  0  0  0
  4  5  1  0  0  0
  5  6  2  0  0  0
  6  7  1  0  0  0
  7  8  2  0  0  0
  8  9  1  0  0  0
  9 10  2  0  0  0
 10  1  1  0  0  0
 18 16  1  0  0  0
 24 19  1  0  0  0
 10  5  1  0  0  0
 14 15  1  0  0  0
M  END
> <minimizedAffinity>
-7.70775

> <CNNscore>
0.2364425659

> <CNNaffinity>
5.5573263168

> <CNN_VS>
1.3139884472

> <CNNaffinity_variance>
0.1372594535

$$$$
[H]c1nc([H])c([C@@]2([H])N(C([H])([H])[H])C([H])([H])C([H])([H])C2([H])[H])c([H])c1[H]


 12 13  0  0  0  0  0  0  0  0999 V2000
   55.5906   -3.8450  -10.5688 C   0  0  0  0  0  0  0  0  0  0  0  0
   55.9215   -4.7465   -9.5548 N   0  0  0  0  0  0  0  0  0  0  0  0
   57.2631   -5.1400   -9.3927 C   0  0  0  0  0  0  0  0  0  0  0  0
   57.5791   -4.7350   -7.9672 C   0  0  0  0  0  0  0  0  0  0  0  0
   56.3305   -4.0162   -7.4423 C   0  0  0  0  0  0  0  0  0  0  0  0
   55.2602   -4.6740   -8.3162 C   0  0  0  0  0  0  0  0  0  0  0  0
   53.9885   -3.9773   -8.2568 C   0  0  0  0  0  0  0  0  0  0  0  0
   52.9575   -4.4757   -7.4900 C   0  0  0  0  0  0  0  0  0  0  0  0
   51.7247   -3.8089   -7.4302 C   0  0  0  0  0  0  0  0  0  0  0  0
   51.5665   -2.6475   -8.1528 C   0  0  0  0  0  0  0  0  0  0  0  0
   52.5722   -2.1908   -8.8809 N   0  0  0  0  0  0  0  0  0  0  0  0
   53.7629   -2.8136   -8.9530 C   0  0  0  0  0  0  0  0  0  0  0  0
  1  2  1  0  0  0
  2  3  1  0  0  0
  3  4  1  0  0  0
  4  5  1  0  0  0
  5  6  1  0  0  0
  6  7  1  0  0  0
  7  8  2  0  0  0
  8  9  1  0  0  0
  9 10  2  0  0  0
 10 11  1  0  0  0
 11 12  2  0  0  0
  6  2  1  0  0  0
 12  7  1  0  0  0
M  END
> <minimizedAffinity>
-6.09466

> <CNNscore>
0.5758726001

> <CNNaffinity>
4.6622886658

> <CNN_VS>
2.6848843098

> <CNNaffinity_variance>
0.1009656787

$$$$
[H]c1nc([H])c([C@@]2([H])N(C([H])([H])[H])C([H])([H])C([H])([H])C2([H])[H])c([H])c1[H]


 12 13  0  0  0  0  0  0  0  0999 V2000
   56.0306   -3.6202   -6.8762 C   0  0  0  0  0  0  0  0  0  0  0  0
   55.7607   -4.9461   -7.2216 N   0  0  0  0  0  0  0  0  0  0  0  0
   56.4391   -5.9839   -6.5554 C   0  0  0  0  0  0  0  0  0  0  0  0
   55.3188   -6.8067   -5.9522 C   0  0  0  0  0  0  0  0  0  0  0  0
   54.0198   -6.0591   -6.2763 C   0  0  0  0  0  0  0  0  0  0  0  0
   54.4476   -5.3263   -7.5499 C   0  0  0  0  0  0  0  0  0  0  0  0
   53.5090   -4.2891   -7.9364 C   0  0  0  0  0  0  0  0  0  0  0  0
   52.3589   -4.0842   -7.2052 C   0  0  0  0  0  0  0  0  0  0  0  0
   51.4459   -3.0853   -7.5748 C   0  0  0  0  0  0  0  0  0  0  0  0
   51.7225   -2.3147   -8.6820 C   0  0  0  0  0  0  0  0  0  0  0  0
   52.8337   -2.5322   -9.3662 N   0  0  0  0  0  0  0  0  0  0  0  0
   53.7233   -3.4843   -9.0301 C   0  0  0  0  0  0  0  0  0  0  0  0
  1  2  1  0  0  0
  2  3  1  0  0  0
  3  4  1  0  0  0
  4  5  1  0  0  0
  5  6  1  0  0  0
  6  7  1  0  0  0
  7  8  2  0  0  0
  8  9  1  0  0  0
  9 10  2  0  0  0
 10 11  1  0  0  0
 11 12  2  0  0  0
  6  2  1  0  0  0
 12  7  1  0  0  0
M  END
> <minimizedAffinity>
-5.83851

> <CNNscore>
0.5552771091

> <CNNaffinity>
4.6193928719

> <CNN_VS>
2.5650432110

> <CNNaffinity_variance>
0.1192278638

$$$$
[H]c1nc([H])c([C@@]2([H])N(C([H])([H])[H])C([H])([H])C([H])([H])C2([H])[H])c([H])c1[H]


 12 13  0  0  0  0  0  0  0  0999 V2000
   54.4840   -4.3730   -7.3678 C   0  0  0  0  0  0  0  0  0  0  0  0
   53.9532   -5.5924   -6.9417 N   0  0  0  0  0  0  0  0  0  0  0  0
   54.8040   -6.5464   -6.3524 C   0  0  0  0  0  0  0  0  0  0  0  0
   54.1873   -6.7726   -4.9870 C   0  0  0  0  0  0  0  0  0  0  0  0
   53.0134   -5.7916   -4.8825 C   0  0  0  0  0  0  0  0  0  0  0  0
   52.6714   -5.6302   -6.3655 C   0  0  0  0  0  0  0  0  0  0  0  0
   51.7753   -4.5154   -6.6112 C   0  0  0  0  0  0  0  0  0  0  0  0
   50.6900   -4.3011   -5.7892 C   0  0  0  0  0  0  0  0  0  0  0  0
   49.8181   -3.2271   -6.0226 C   0  0  0  0  0  0  0  0  0  0  0  0
   50.0689   -2.3928   -7.0889 C   0  0  0  0  0  0  0  0  0  0  0  0
   51.1176   -2.6209   -7.8624 N   0  0  0  0  0  0  0  0  0  0  0  0
   51.9669   -3.6444   -7.6574 C   0  0  0  0  0  0  0  0  0  0  0  0
  1  2  1  0  0  0
  2  3  1  0  0  0
  3  4  1  0  0  0
  4  5  1  0  0  0
  5  6  1  0  0  0
  6  7  1  0  0  0
  7  8  2  0  0  0
  8  9  1  0  0  0
  9 10  2  0  0  0
 10 11  1  0  0  0
 11 12  2  0  0  0
  6  2  1  0  0  0
 12  7  1  0  0  0
M  END
> <minimizedAffinity>
-5.95952

> <CNNscore>
0.4510336518

> <CNNaffinity>
4.6728186607

> <CNN_VS>
2.1075985432

> <CNNaffinity_variance>
0.1998855323

$$$$
[H]c1nc([H])c([C@@]2([H])N(C([H])([H])[H])C([H])([H])C([H])([H])C2([H])[H])c([H])c1[H]


 12 13  0  0  0  0  0  0  0  0999 V2000
   50.5692   -6.2947   -7.1541 C   0  0  0  0  0  0  0  0  0  0  0  0
   50.8794   -5.5889   -5.9897 N   0  0  0  0  0  0  0  0  0  0  0  0
   50.7556   -6.2286   -4.7420 C   0  0  0  0  0  0  0  0  0  0  0  0
   52.1492   -6.1297   -4.1557 C   0  0  0  0  0  0  0  0  0  0  0  0
   53.0204   -5.4786   -5.2366 C   0  0  0  0  0  0  0  0  0  0  0  0
   51.9536   -4.6818   -5.9910 C   0  0  0  0  0  0  0  0  0  0  0  0
   52.4305   -4.1848   -7.2683 C   0  0  0  0  0  0  0  0  0  0  0  0
   53.5593   -4.7238   -7.8468 C   0  0  0  0  0  0  0  0  0  0  0  0
   54.0276   -4.2462   -9.0799 C   0  0  0  0  0  0  0  0  0  0  0  0
   53.3368   -3.2288   -9.6994 C   0  0  0  0  0  0  0  0  0  0  0  0
   52.2562   -2.7292   -9.1225 N   0  0  0  0  0  0  0  0  0  0  0  0
   51.7891   -3.1717   -7.9406 C   0  0  0  0  0  0  0  0  0  0  0  0
  1  2  1  0  0  0
  2  3  1  0  0  0
  3  4  1  0  0  0
  4  5  1  0  0  0
  5  6  1  0  0  0
  6  7  1  0  0  0
  7  8  2  0  0  0
  8  9  1  0  0  0
  9 10  2  0  0  0
 10 11  1  0  0  0
 11 12  2  0  0  0
  6  2  1  0  0  0
 12  7  1  0  0  0
M  END
> <minimizedAffinity>
-5.30647

> <CNNscore>
0.4422713518

> <CNNaffinity>
4.8556852341

> <CNN_VS>
2.1475305557

> <CNNaffinity_variance>
0.2583728731

$$$$
[H]c1nc([H])c([C@@]2([H])N(C([H])([H])[H])C([H])([H])C([H])([H])C2([H])[H])c([H])c1[H]


 12 13  0  0  0  0  0  0  0  0999 V2000
   51.3152   -3.0344   -7.5311 C   0  0  0  0  0  0  0  0  0  0  0  0
   51.5479   -4.0751   -6.6294 N   0  0  0  0  0  0  0  0  0  0  0  0
   50.4532   -4.7251   -6.0292 C   0  0  0  0  0  0  0  0  0  0  0  0
   50.6382   -6.1733   -6.4343 C   0  0  0  0  0  0  0  0  0  0  0  0
   51.8545   -6.2020   -7.3677 C   0  0  0  0  0  0  0  0  0  0  0  0
   52.6072   -4.9707   -6.8586 C   0  0  0  0  0  0  0  0  0  0  0  0
   53.6717   -4.5597   -7.7552 C   0  0  0  0  0  0  0  0  0  0  0  0
   54.9749   -4.5073   -7.3098 C   0  0  0  0  0  0  0  0  0  0  0  0
   56.0084   -4.1082   -8.1702 C   0  0  0  0  0  0  0  0  0  0  0  0
   55.6941   -3.7702   -9.4675 C   0  0  0  0  0  0  0  0  0  0  0  0
   54.4351   -3.8291   -9.8695 N   0  0  0  0  0  0  0  0  0  0  0  0
   53.4280   -4.2089   -9.0618 C   0  0  0  0  0  0  0  0  0  0  0  0
  1  2  1  0  0  0
  2  3  1  0  0  0
  3  4  1  0  0  0
  4  5  1  0  0  0
  5  6  1  0  0  0
  6  7  1  0  0  0
  7  8  2  0  0  0
  8  9  1  0  0  0
  9 10  2  0  0  0
 10 11  1  0  0  0
 11 12  2  0  0  0
  6  2  1  0  0  0
 12  7  1  0  0  0
M  END
> <minimizedAffinity>
-5.78264

> <CNNscore>
0.4176281691

> <CNNaffinity>
4.6037068367

> <CNN_VS>
1.9226377010

> <CNNaffinity_variance>
0.1856078207

$$$$
[H]c1nc([H])c([C@@]2([H])N(C([H])([H])[H])C([H])([H])C([H])([H])C2([H])[H])c([H])c1[H]


 12 13  0  0  0  0  0  0  0  0999 V2000
   59.0505   -3.7956  -12.7512 C   0  0  0  0  0  0  0  0  0  0  0  0
   57.7376   -3.5141  -13.1350 N   0  0  0  0  0  0  0  0  0  0  0  0
   57.4036   -3.5149  -14.5023 C   0  0  0  0  0  0  0  0  0  0  0  0
   56.3056   -4.5548  -14.5961 C   0  0  0  0  0  0  0  0  0  0  0  0
   56.1690   -5.1571  -13.1927 C   0  0  0  0  0  0  0  0  0  0  0  0
   56.6680   -3.9806  -12.3507 C   0  0  0  0  0  0  0  0  0  0  0  0
   56.9383   -4.3564  -10.9753 C   0  0  0  0  0  0  0  0  0  0  0  0
   56.1096   -3.9271   -9.9612 C   0  0  0  0  0  0  0  0  0  0  0  0
   56.3665   -4.2842   -8.6291 C   0  0  0  0  0  0  0  0  0  0  0  0
   57.4627   -5.0716   -8.3563 C   0  0  0  0  0  0  0  0  0  0  0  0
   58.2420   -5.4701   -9.3483 N   0  0  0  0  0  0  0  0  0  0  0  0
   58.0148   -5.1398  -10.6328 C   0  0  0  0  0  0  0  0  0  0  0  0
  1  2  1  0  0  0
  2  3  1  0  0  0
  3  4  1  0  0  0
  4  5  1  0  0  0
  5  6  1  0  0  0
  6  7  1  0  0  0
  7  8  2  0  0  0
  8  9  1  0  0  0
  9 10  2  0  0  0
 10 11  1  0  0  0
 11 12  2  0  0  0
  6  2  1  0  0  0
 12  7  1  0  0  0
M  END
> <minimizedAffinity>
-4.88418

> <CNNscore>
0.3453979492

> <CNNaffinity>
3.4735145569

> <CNN_VS>
1.1997448206

> <CNNaffinity_variance>
0.2961215079

$$$$
[H]c1nc([H])c([C@@]2([H])N(C([H])([H])[H])C([H])([H])C([H])([H])C2([H])[H])c([H])c1[H]


 12 13  0  0  0  0  0  0  0  0999 V2000
   53.2139   -2.1303   -8.7168 C   0  0  0  0  0  0  0  0  0  0  0  0
   53.4575   -3.4933   -8.8994 N   0  0  0  0  0  0  0  0  0  0  0  0
   54.7312   -3.9152   -9.3246 C   0  0  0  0  0  0  0  0  0  0  0  0
   55.1782   -4.8525   -8.2213 C   0  0  0  0  0  0  0  0  0  0  0  0
   54.0810   -4.8041   -7.1513 C   0  0  0  0  0  0  0  0  0  0  0  0
   52.8798   -4.4272   -8.0216 C   0  0  0  0  0  0  0  0  0  0  0  0
   51.7324   -4.0123   -7.2359 C   0  0  0  0  0  0  0  0  0  0  0  0
   50.9448   -2.9623   -7.6560 C   0  0  0  0  0  0  0  0  0  0  0  0
   49.8357   -2.5541   -6.9001 C   0  0  0  0  0  0  0  0  0  0  0  0
   49.5510   -3.2236   -5.7310 C   0  0  0  0  0  0  0  0  0  0  0  0
   50.3232   -4.2281   -5.3505 N   0  0  0  0  0  0  0  0  0  0  0  0
   51.3915   -4.6366   -6.0595 C   0  0  0  0  0  0  0  0  0  0  0  0
  1  2  1  0  0  0
  2  3  1  0  0  0
  3  4  1  0  0  0
  4  5  1  0  0  0
  5  6  1  0  0  0
  6  7  1  0  0  0
  7  8  2  0  0  0
  8  9  1  0  0  0
  9 10  2  0  0  0
 10 11  1  0  0  0
 11 12  2  0  0  0
  6  2  1  0  0  0
 12  7  1  0  0  0
M  END
> <minimizedAffinity>
-6.45962

> <CNNscore>
0.3183143139

> <CNNaffinity>
4.7247710228

> <CNN_VS>
1.5039622784

> <CNNaffinity_variance>
0.1611440182

$$$$
[H]c1nc([H])c([C@@]2([H])N(C([H])([H])[H])C([H])([H])C([H])([H])C2([H])[H])c([H])c1[H]


 12 13  0  0  0  0  0  0  0  0999 V2000
   53.2483   -2.1183   -8.7268 C   0  0  0  0  0  0  0  0  0  0  0  0
   53.4181   -3.4984   -8.8557 N   0  0  0  0  0  0  0  0  0  0  0  0
   54.6837   -4.0081   -9.2017 C   0  0  0  0  0  0  0  0  0  0  0  0
   55.0180   -4.9331   -8.0491 C   0  0  0  0  0  0  0  0  0  0  0  0
   53.8738   -4.7850   -7.0391 C   0  0  0  0  0  0  0  0  0  0  0  0
   52.7424   -4.3674   -7.9811 C   0  0  0  0  0  0  0  0  0  0  0  0
   51.5843   -3.8602   -7.2686 C   0  0  0  0  0  0  0  0  0  0  0  0
   51.1551   -4.4748   -6.1121 C   0  0  0  0  0  0  0  0  0  0  0  0
   50.0348   -3.9915   -5.4198 C   0  0  0  0  0  0  0  0  0  0  0  0
   49.3737   -2.8917   -5.9193 C   0  0  0  0  0  0  0  0  0  0  0  0
   49.8066   -2.3206   -7.0313 N   0  0  0  0  0  0  0  0  0  0  0  0
   50.8785   -2.7668   -7.7115 C   0  0  0  0  0  0  0  0  0  0  0  0
  1  2  1  0  0  0
  2  3  1  0  0  0
  3  4  1  0  0  0
  4  5  1  0  0  0
  5  6  1  0  0  0
  6  7  1  0  0  0
  7  8  2  0  0  0
  8  9  1  0  0  0
  9 10  2  0  0  0
 10 11  1  0  0  0
 11 12  2  0  0  0
  6  2  1  0  0  0
 12  7  1  0  0  0
M  END
> <minimizedAffinity>
-6.19842

> <CNNscore>
0.2881339490

> <CNNaffinity>
4.6447138786

> <CNN_VS>
1.3382997513

> <CNNaffinity_variance>
0.1442257315

$$$$
[H]c1nc([H])c([C@@]2([H])N(C([H])([H])[H])C([H])([H])C([H])([H])C2([H])[H])c([H])c1[H]


 12 13  0  0  0  0  0  0  0  0999 V2000
   53.3670   -4.9197   -6.9818 C   0  0  0  0  0  0  0  0  0  0  0  0
   52.8688   -4.3016   -8.1308 N   0  0  0  0  0  0  0  0  0  0  0  0
   51.6799   -3.5525   -8.0504 C   0  0  0  0  0  0  0  0  0  0  0  0
   52.0989   -2.1751   -8.5224 C   0  0  0  0  0  0  0  0  0  0  0  0
   53.6124   -2.2481   -8.7577 C   0  0  0  0  0  0  0  0  0  0  0  0
   53.7606   -3.7406   -9.0616 C   0  0  0  0  0  0  0  0  0  0  0  0
   55.1441   -4.1783   -9.0366 C   0  0  0  0  0  0  0  0  0  0  0  0
   55.8228   -4.2710   -7.8407 C   0  0  0  0  0  0  0  0  0  0  0  0
   57.1610   -4.6907   -7.8094 C   0  0  0  0  0  0  0  0  0  0  0  0
   57.7815   -5.0076   -8.9971 C   0  0  0  0  0  0  0  0  0  0  0  0
   57.1072   -4.9100  -10.1311 N   0  0  0  0  0  0  0  0  0  0  0  0
   55.8235   -4.5099  -10.1848 C   0  0  0  0  0  0  0  0  0  0  0  0
  1  2  1  0  0  0
  2  3  1  0  0  0
  3  4  1  0  0  0
  4  5  1  0  0  0
  5  6  1  0  0  0
  6  7  1  0  0  0
  7  8  2  0  0  0
  8  9  1  0  0  0
  9 10  2  0  0  0
 10 11  1  0  0  0
 11 12  2  0  0  0
  6  2  1  0  0  0
 12  7  1  0  0  0
M  END
> <minimizedAffinity>
-5.61720

> <CNNscore>
0.2754159272

> <CNNaffinity>
4.1587104797

> <CNN_VS>
1.1453751326

> <CNNaffinity_variance>
0.1679027230

$$$$
[H]c1nc([H])c(N([H])C(=O)c2nc(-c3c(F)c([H])c([H])c([H])c3F)c([H])c([H])c2F)c([C@@]2([H])C([H])([H])[C@@]([H])(N([H])[H])C([H])([H])[C@@]([H])(C([H])([H])[H])C2([H])[H])c1[H]


 35 38  0  0  0  0  0  0  0  0999 V2000
   53.2702   -4.7264   -7.4744 N   0  0  0  0  0  0  0  0  0  0  0  0
   53.8342   -4.2118   -8.6460 C   0  0  0  0  0  0  0  0  0  0  0  0
   53.1113   -3.4470   -9.4064 O   0  0  0  0  0  0  0  0  0  0  0  0
   53.8681   -5.3318   -6.8670 H   0  0  0  0  0  0  0  0  0  0  0  0
   55.1804   -4.4055   -9.1593 C   0  0  0  0  0  0  0  0  0  0  0  0
   55.4004   -4.3018  -10.4825 N   0  0  0  0  0  0  0  0  0  0  0  0
   56.5647   -4.4465  -11.1186 C   0  0  0  0  0  0  0  0  0  0  0  0
   57.6728   -4.7454  -10.3120 C   0  0  0  0  0  0  0  0  0  0  0  0
   57.5258   -4.8702   -8.9461 C   0  0  0  0  0  0  0  0  0  0  0  0
   56.2624   -4.6949   -8.3897 C   0  0  0  0  0  0  0  0  0  0  0  0
   56.1593   -4.8327   -7.0138 F   0  0  0  0  0  0  0  0  0  0  0  0
   56.7588   -4.2711  -12.5418 C   0  0  0  0  0  0  0  0  0  0  0  0
   57.8086   -3.5199  -13.0498 C   0  0  0  0  0  0  0  0  0  0  0  0
   58.6760   -2.8846  -12.2062 F   0  0  0  0  0  0  0  0  0  0  0  0
   58.0349   -3.3598  -14.3966 C   0  0  0  0  0  0  0  0  0  0  0  0
   57.2122   -3.9521  -15.3097 C   0  0  0  0  0  0  0  0  0  0  0  0
   56.1438   -4.7137  -14.8331 C   0  0  0  0  0  0  0  0  0  0  0  0
   55.9429   -4.8551  -13.4771 C   0  0  0  0  0  0  0  0  0  0  0  0
   54.8922   -5.6049  -13.0008 F   0  0  0  0  0  0  0  0  0  0  0  0
   51.6676   -4.4194   -5.7578 C   0  0  0  0  0  0  0  0  0  0  0  0
   50.3679   -4.0216   -5.4252 C   0  0  0  0  0  0  0  0  0  0  0  0
   49.4310   -3.6751   -6.3841 C   0  0  0  0  0  0  0  0  0  0  0  0
   49.7397   -3.7091   -7.6738 N   0  0  0  0  0  0  0  0  0  0  0  0
   50.9904   -4.0873   -8.0230 C   0  0  0  0  0  0  0  0  0  0  0  0
   51.9395   -4.4286   -7.1239 C   0  0  0  0  0  0  0  0  0  0  0  0
   54.9163   -7.8394   -6.0597 C   0  0  0  0  0  0  0  0  0  0  0  0
   54.4939   -6.7324   -5.0333 C   0  0  0  0  0  0  0  0  0  0  0  0
   53.9260   -7.4725   -3.8185 C   0  0  0  0  0  0  0  0  0  0  0  0
   53.2313   -6.4796   -2.9682 C   0  0  0  0  0  0  0  0  0  0  0  0
   52.7916   -7.0212   -1.7336 N   0  0  0  0  0  0  0  0  0  0  0  0
   52.0252   -5.8556   -3.7213 C   0  0  0  0  0  0  0  0  0  0  0  0
   52.6121   -4.9655   -4.8124 C   0  0  0  0  0  0  0  0  0  0  0  0
   53.4095   -6.0024   -5.7025 C   0  0  0  0  0  0  0  0  0  0  0  0
   52.3208   -6.3176   -1.1048 H   0  0  0  0  0  0  0  0  0  0  0  0
   53.4380   -7.6367   -1.2250 H   0  0  0  0  0  0  0  0  0  0  0  0
 26 27  1  0  0  0
 27 28  1  0  0  0
 28 29  1  0  0  0
 29 30  1  0  0  0
 29 31  1  0  0  0
 31 32  1  0  0  0
 32 20  1  0  0  0
 20 21  2  0  0  0
 21 22  1  0  0  0
 22 23  2  0  0  0
 23 24  1  0  0  0
 24 25  2  0  0  0
 25  1  1  0  0  0
  1  2  1  0  0  0
  2  3  2  0  0  0
  2  5  1  0  0  0
  5  6  2  0  0  0
  6  7  1  0  0  0
  7 12  1  0  0  0
 12 13  2  0  0  0
 13 14  1  0  0  0
 13 15  1  0  0  0
 15 16  2  0  0  0
 16 17  1  0  0  0
 17 18  2  0  0  0
 18 19  1  0  0  0
  7  8  2  0  0  0
  8  9  1  0  0  0
  9 10  2  0  0  0
 10 11  1  0  0  0
 32 33  1  0  0  0
 33 27  1  0  0  0
 25 20  1  0  0  0
 10  5  1  0  0  0
 18 12  1  0  0  0
 30 34  1  0  0  0
 30 35  1  0  0  0
  1  4  1  0  0  0
M  END
> <minimizedAffinity>
-7.07833

> <CNNscore>
0.5225337744

> <CNNaffinity>
7.6174993515

> <CNN_VS>
3.9804008007

> <CNNaffinity_variance>
0.3702422976

$$$$
[H]c1nc([H])c(N([H])C(=O)c2nc(-c3c(F)c([H])c([H])c([H])c3F)c([H])c([H])c2F)c([C@@]2([H])C([H])([H])[C@@]([H])(N([H])[H])C([H])([H])[C@@]([H])(C([H])([H])[H])C2([H])[H])c1[H]


 35 38  0  0  0  0  0  0  0  0999 V2000
   53.2967   -4.4865   -8.4258 N   0  0  0  0  0  0  0  0  0  0  0  0
   54.3882   -3.7272   -8.8593 C   0  0  0  0  0  0  0  0  0  0  0  0
   54.3444   -2.4360   -8.7309 O   0  0  0  0  0  0  0  0  0  0  0  0
   53.3513   -5.5256   -8.5259 H   0  0  0  0  0  0  0  0  0  0  0  0
   55.6318   -4.1923   -9.4513 C   0  0  0  0  0  0  0  0  0  0  0  0
   55.8081   -4.0828  -10.7806 N   0  0  0  0  0  0  0  0  0  0  0  0
   56.8799   -4.4545  -11.4836 C   0  0  0  0  0  0  0  0  0  0  0  0
   57.9290   -5.0264  -10.7488 C   0  0  0  0  0  0  0  0  0  0  0  0
   57.8210   -5.1746   -9.3815 C   0  0  0  0  0  0  0  0  0  0  0  0
   56.6559   -4.7477   -8.7517 C   0  0  0  0  0  0  0  0  0  0  0  0
   56.5882   -4.9186   -7.3772 F   0  0  0  0  0  0  0  0  0  0  0  0
   57.0424   -4.2650  -12.9090 C   0  0  0  0  0  0  0  0  0  0  0  0
   56.1468   -4.7979  -13.8246 C   0  0  0  0  0  0  0  0  0  0  0  0
   55.0948   -5.5596  -13.3999 F   0  0  0  0  0  0  0  0  0  0  0  0
   56.2595   -4.6099  -15.1821 C   0  0  0  0  0  0  0  0  0  0  0  0
   57.2852   -3.8700  -15.6935 C   0  0  0  0  0  0  0  0  0  0  0  0
   58.2066   -3.3206  -14.8003 C   0  0  0  0  0  0  0  0  0  0  0  0
   58.0671   -3.5271  -13.4450 C   0  0  0  0  0  0  0  0  0  0  0  0
   58.9714   -2.9879  -12.5592 F   0  0  0  0  0  0  0  0  0  0  0  0
   51.7956   -4.3220   -6.6013 C   0  0  0  0  0  0  0  0  0  0  0  0
   50.7327   -3.6240   -6.0172 C   0  0  0  0  0  0  0  0  0  0  0  0
   50.0984   -2.5712   -6.6550 C   0  0  0  0  0  0  0  0  0  0  0  0
   50.4842   -2.1816   -7.8629 N   0  0  0  0  0  0  0  0  0  0  0  0
   51.5116   -2.8373   -8.4493 C   0  0  0  0  0  0  0  0  0  0  0  0
   52.1644   -3.8657   -7.8646 C   0  0  0  0  0  0  0  0  0  0  0  0
   51.4451   -6.4380   -2.3892 C   0  0  0  0  0  0  0  0  0  0  0  0
   52.0366   -6.7665   -3.8033 C   0  0  0  0  0  0  0  0  0  0  0  0
   53.5573   -6.8185   -3.6270 C   0  0  0  0  0  0  0  0  0  0  0  0
   54.1693   -6.8103   -4.9749 C   0  0  0  0  0  0  0  0  0  0  0  0
   55.5733   -7.0078   -4.9451 N   0  0  0  0  0  0  0  0  0  0  0  0
   53.8460   -5.4868   -5.7199 C   0  0  0  0  0  0  0  0  0  0  0  0
   52.3596   -5.5356   -6.0599 C   0  0  0  0  0  0  0  0  0  0  0  0
   51.6873   -5.6036   -4.6293 C   0  0  0  0  0  0  0  0  0  0  0  0
   56.0188   -7.0338   -5.9006 H   0  0  0  0  0  0  0  0  0  0  0  0
   55.9401   -7.7334   -4.3173 H   0  0  0  0  0  0  0  0  0  0  0  0
 26 27  1  0  0  0
 27 28  1  0  0  0
 28 29  1  0  0  0
 29 30  1  0  0  0
 29 31  1  0  0  0
 31 32  1  0  0  0
 32 20  1  0  0  0
 20 21  2  0  0  0
 21 22  1  0  0  0
 22 23  2  0  0  0
 23 24  1  0  0  0
 24 25  2  0  0  0
 25  1  1  0  0  0
  1  2  1  0  0  0
  2  3  2  0  0  0
  2  5  1  0  0  0
  5  6  2  0  0  0
  6  7  1  0  0  0
  7 12  1  0  0  0
 12 13  2  0  0  0
 13 14  1  0  0  0
 13 15  1  0  0  0
 15 16  2  0  0  0
 16 17  1  0  0  0
 17 18  2  0  0  0
 18 19  1  0  0  0
  7  8  2  0  0  0
  8  9  1  0  0  0
  9 10  2  0  0  0
 10 11  1  0  0  0
 32 33  1  0  0  0
 33 27  1  0  0  0
 25 20  1  0  0  0
 10  5  1  0  0  0
 18 12  1  0  0  0
 30 34  1  0  0  0
 30 35  1  0  0  0
  1  4  1  0  0  0
M  END
> <minimizedAffinity>
-9.96482

> <CNNscore>
0.4422254860

> <CNNaffinity>
7.4905152321

> <CNN_VS>
3.3124966621

> <CNNaffinity_variance>
0.0532719418

$$$$
[H]c1nc([H])c(N([H])C(=O)c2nc(-c3c(F)c([H])c([H])c([H])c3F)c([H])c([H])c2F)c([C@@]2([H])C([H])([H])[C@@]([H])(N([H])[H])C([H])([H])[C@@]([H])(C([H])([H])[H])C2([H])[H])c1[H]


 35 38  0  0  0  0  0  0  0  0999 V2000
   55.8867   -4.6249   -8.9758 N   0  0  0  0  0  0  0  0  0  0  0  0
   56.6012   -4.4226  -10.1609 C   0  0  0  0  0  0  0  0  0  0  0  0
   56.0262   -3.7929  -11.1399 O   0  0  0  0  0  0  0  0  0  0  0  0
   56.3668   -5.1241   -8.1927 H   0  0  0  0  0  0  0  0  0  0  0  0
   57.9641   -4.8219  -10.4713 C   0  0  0  0  0  0  0  0  0  0  0  0
   58.5183   -4.4215  -11.6300 N   0  0  0  0  0  0  0  0  0  0  0  0
   59.7487   -4.6930  -12.0698 C   0  0  0  0  0  0  0  0  0  0  0  0
   60.5408   -5.4882  -11.2283 C   0  0  0  0  0  0  0  0  0  0  0  0
   60.0410   -5.9395  -10.0243 C   0  0  0  0  0  0  0  0  0  0  0  0
   58.7423   -5.5913   -9.6656 C   0  0  0  0  0  0  0  0  0  0  0  0
   58.2790   -6.0690   -8.4491 F   0  0  0  0  0  0  0  0  0  0  0  0
   60.3175   -4.1919  -13.3024 C   0  0  0  0  0  0  0  0  0  0  0  0
   61.6374   -4.4374  -13.6519 C   0  0  0  0  0  0  0  0  0  0  0  0
   62.4572   -5.1355  -12.8104 F   0  0  0  0  0  0  0  0  0  0  0  0
   62.1966   -3.9992  -14.8293 C   0  0  0  0  0  0  0  0  0  0  0  0
   61.4521   -3.2872  -15.7237 C   0  0  0  0  0  0  0  0  0  0  0  0
   60.1201   -3.0198  -15.4028 C   0  0  0  0  0  0  0  0  0  0  0  0
   59.5884   -3.4722  -14.2146 C   0  0  0  0  0  0  0  0  0  0  0  0
   58.2762   -3.2127  -13.8925 F   0  0  0  0  0  0  0  0  0  0  0  0
   53.8837   -4.6054   -7.7123 C   0  0  0  0  0  0  0  0  0  0  0  0
   52.6086   -4.0536   -7.5450 C   0  0  0  0  0  0  0  0  0  0  0  0
   52.0707   -3.1462   -8.4421 C   0  0  0  0  0  0  0  0  0  0  0  0
   52.7585   -2.7624   -9.5094 N   0  0  0  0  0  0  0  0  0  0  0  0
   53.9952   -3.2782   -9.6937 C   0  0  0  0  0  0  0  0  0  0  0  0
   54.5639   -4.1613   -8.8437 C   0  0  0  0  0  0  0  0  0  0  0  0
   52.8647   -6.1924   -3.3781 C   0  0  0  0  0  0  0  0  0  0  0  0
   53.7346   -6.6453   -4.6011 C   0  0  0  0  0  0  0  0  0  0  0  0
   55.1938   -6.5430   -4.1469 C   0  0  0  0  0  0  0  0  0  0  0  0
   56.0504   -6.6530   -5.3492 C   0  0  0  0  0  0  0  0  0  0  0  0
   57.4322   -6.7230   -5.0382 N   0  0  0  0  0  0  0  0  0  0  0  0
   55.7951   -5.4675   -6.3192 C   0  0  0  0  0  0  0  0  0  0  0  0
   54.4069   -5.6872   -6.9123 C   0  0  0  0  0  0  0  0  0  0  0  0
   53.4791   -5.6311   -5.6321 C   0  0  0  0  0  0  0  0  0  0  0  0
   58.0528   -6.8314   -5.8839 H   0  0  0  0  0  0  0  0  0  0  0  0
   57.7160   -7.3287   -4.2586 H   0  0  0  0  0  0  0  0  0  0  0  0
 26 27  1  0  0  0
 27 28  1  0  0  0
 28 29  1  0  0  0
 29 30  1  0  0  0
 29 31  1  0  0  0
 31 32  1  0  0  0
 32 20  1  0  0  0
 20 21  2  0  0  0
 21 22  1  0  0  0
 22 23  2  0  0  0
 23 24  1  0  0  0
 24 25  2  0  0  0
 25  1  1  0  0  0
  1  2  1  0  0  0
  2  3  2  0  0  0
  2  5  1  0  0  0
  5  6  2  0  0  0
  6  7  1  0  0  0
  7 12  1  0  0  0
 12 13  2  0  0  0
 13 14  1  0  0  0
 13 15  1  0  0  0
 15 16  2  0  0  0
 16 17  1  0  0  0
 17 18  2  0  0  0
 18 19  1  0  0  0
  7  8  2  0  0  0
  8  9  1  0  0  0
  9 10  2  0  0  0
 10 11  1  0  0  0
 32 33  1  0  0  0
 33 27  1  0  0  0
 25 20  1  0  0  0
 10  5  1  0  0  0
 18 12  1  0  0  0
 30 34  1  0  0  0
 30 35  1  0  0  0
  1  4  1  0  0  0
M  END
> <minimizedAffinity>
-7.09177

> <CNNscore>
0.4011206925

> <CNNaffinity>
7.0021071434

> <CNN_VS>
2.8086900711

> <CNNaffinity_variance>
0.3363510966

$$$$
[H]c1nc([H])c(N([H])C(=O)c2nc(-c3c(F)c([H])c([H])c([H])c3F)c([H])c([H])c2F)c([C@@]2([H])C([H])([H])[C@@]([H])(N([H])[H])C([H])([H])[C@@]([H])(C([H])([H])[H])C2([H])[H])c1[H]


 35 38  0  0  0  0  0  0  0  0999 V2000
   55.1550   -4.7035   -8.4912 N   0  0  0  0  0  0  0  0  0  0  0  0
   55.4284   -4.3043   -9.8034 C   0  0  0  0  0  0  0  0  0  0  0  0
   54.4818   -3.7547  -10.5016 O   0  0  0  0  0  0  0  0  0  0  0  0
   55.9302   -5.1346   -7.9380 H   0  0  0  0  0  0  0  0  0  0  0  0
   56.6804   -4.4074  -10.5348 C   0  0  0  0  0  0  0  0  0  0  0  0
   57.7372   -4.9985   -9.9484 N   0  0  0  0  0  0  0  0  0  0  0  0
   58.9516   -5.1784  -10.4718 C   0  0  0  0  0  0  0  0  0  0  0  0
   59.1389   -4.6889  -11.7730 C   0  0  0  0  0  0  0  0  0  0  0  0
   58.1025   -4.0680  -12.4387 C   0  0  0  0  0  0  0  0  0  0  0  0
   56.8755   -3.9382  -11.7951 C   0  0  0  0  0  0  0  0  0  0  0  0
   55.8627   -3.3048  -12.4993 F   0  0  0  0  0  0  0  0  0  0  0  0
   60.0415   -5.8705   -9.8181 C   0  0  0  0  0  0  0  0  0  0  0  0
   61.2254   -6.1610  -10.4803 C   0  0  0  0  0  0  0  0  0  0  0  0
   61.3800   -5.8311  -11.7974 F   0  0  0  0  0  0  0  0  0  0  0  0
   62.2883   -6.7911   -9.8769 C   0  0  0  0  0  0  0  0  0  0  0  0
   62.2163   -7.1635   -8.5665 C   0  0  0  0  0  0  0  0  0  0  0  0
   61.0380   -6.8887   -7.8702 C   0  0  0  0  0  0  0  0  0  0  0  0
   59.9897   -6.2562   -8.5028 C   0  0  0  0  0  0  0  0  0  0  0  0
   58.8259   -5.9818   -7.8221 F   0  0  0  0  0  0  0  0  0  0  0  0
   53.6459   -5.1814   -6.7296 C   0  0  0  0  0  0  0  0  0  0  0  0
   52.4069   -4.9059   -6.1404 C   0  0  0  0  0  0  0  0  0  0  0  0
   51.4849   -4.0506   -6.7199 C   0  0  0  0  0  0  0  0  0  0  0  0
   51.7501   -3.4526   -7.8739 N   0  0  0  0  0  0  0  0  0  0  0  0
   52.9420   -3.6990   -8.4637 C   0  0  0  0  0  0  0  0  0  0  0  0
   53.8749   -4.5206   -7.9342 C   0  0  0  0  0  0  0  0  0  0  0  0
   53.8221   -7.7727   -2.7804 C   0  0  0  0  0  0  0  0  0  0  0  0
   54.5526   -7.7253   -4.1666 C   0  0  0  0  0  0  0  0  0  0  0  0
   55.9956   -7.3033   -3.8732 C   0  0  0  0  0  0  0  0  0  0  0  0
   56.6312   -6.9409   -5.1600 C   0  0  0  0  0  0  0  0  0  0  0  0
   58.0188   -6.6761   -5.0353 N   0  0  0  0  0  0  0  0  0  0  0  0
   55.9234   -5.7155   -5.7995 C   0  0  0  0  0  0  0  0  0  0  0  0
   54.5536   -6.2020   -6.2621 C   0  0  0  0  0  0  0  0  0  0  0  0
   53.8770   -6.6498   -4.9039 C   0  0  0  0  0  0  0  0  0  0  0  0
   58.4909   -6.4452   -5.9495 H   0  0  0  0  0  0  0  0  0  0  0  0
   58.5756   -7.3122   -4.4516 H   0  0  0  0  0  0  0  0  0  0  0  0
 26 27  1  0  0  0
 27 28  1  0  0  0
 28 29  1  0  0  0
 29 30  1  0  0  0
 29 31  1  0  0  0
 31 32  1  0  0  0
 32 20  1  0  0  0
 20 21  2  0  0  0
 21 22  1  0  0  0
 22 23  2  0  0  0
 23 24  1  0  0  0
 24 25  2  0  0  0
 25  1  1  0  0  0
  1  2  1  0  0  0
  2  3  2  0  0  0
  2  5  1  0  0  0
  5  6  2  0  0  0
  6  7  1  0  0  0
  7 12  1  0  0  0
 12 13  2  0  0  0
 13 14  1  0  0  0
 13 15  1  0  0  0
 15 16  2  0  0  0
 16 17  1  0  0  0
 17 18  2  0  0  0
 18 19  1  0  0  0
  7  8  2  0  0  0
  8  9  1  0  0  0
  9 10  2  0  0  0
 10 11  1  0  0  0
 32 33  1  0  0  0
 33 27  1  0  0  0
 25 20  1  0  0  0
 10  5  1  0  0  0
 18 12  1  0  0  0
 30 34  1  0  0  0
 30 35  1  0  0  0
  1  4  1  0  0  0
M  END
> <minimizedAffinity>
-7.52147

> <CNNscore>
0.3578973711

> <CNNaffinity>
7.1434526443

> <CNN_VS>
2.5566229820

> <CNNaffinity_variance>
0.3125876188

$$$$
[H]c1nc([H])c(N([H])C(=O)c2nc(-c3c(F)c([H])c([H])c([H])c3F)c([H])c([H])c2F)c([C@@]2([H])C([H])([H])[C@@]([H])(N([H])[H])C([H])([H])[C@@]([H])(C([H])([H])[H])C2([H])[H])c1[H]


 35 38  0  0  0  0  0  0  0  0999 V2000
   60.0519   -5.9230   -8.5108 N   0  0  0  0  0  0  0  0  0  0  0  0
   58.7799   -5.8289   -9.0845 C   0  0  0  0  0  0  0  0  0  0  0  0
   58.5957   -6.2974  -10.2812 O   0  0  0  0  0  0  0  0  0  0  0  0
   60.1820   -5.5511   -7.5425 H   0  0  0  0  0  0  0  0  0  0  0  0
   57.5698   -5.2671   -8.5072 C   0  0  0  0  0  0  0  0  0  0  0  0
   57.1519   -5.7027   -7.3048 N   0  0  0  0  0  0  0  0  0  0  0  0
   56.0723   -5.2976   -6.6328 C   0  0  0  0  0  0  0  0  0  0  0  0
   55.2912   -4.3151   -7.2591 C   0  0  0  0  0  0  0  0  0  0  0  0
   55.6541   -3.8207   -8.4947 C   0  0  0  0  0  0  0  0  0  0  0  0
   56.8041   -4.3152   -9.1024 C   0  0  0  0  0  0  0  0  0  0  0  0
   57.1300   -3.7931  -10.3450 F   0  0  0  0  0  0  0  0  0  0  0  0
   55.6951   -5.7601   -5.3145 C   0  0  0  0  0  0  0  0  0  0  0  0
   55.8120   -4.9505   -4.1941 C   0  0  0  0  0  0  0  0  0  0  0  0
   56.3308   -3.6909   -4.3022 F   0  0  0  0  0  0  0  0  0  0  0  0
   55.4345   -5.3523   -2.9344 C   0  0  0  0  0  0  0  0  0  0  0  0
   54.9148   -6.5977   -2.7342 C   0  0  0  0  0  0  0  0  0  0  0  0
   54.7853   -7.4399   -3.8399 C   0  0  0  0  0  0  0  0  0  0  0  0
   55.1730   -7.0085   -5.0899 C   0  0  0  0  0  0  0  0  0  0  0  0
   55.0474   -7.8334   -6.1839 F   0  0  0  0  0  0  0  0  0  0  0  0
   61.8351   -7.4816   -8.5224 C   0  0  0  0  0  0  0  0  0  0  0  0
   62.8250   -8.1245   -9.2740 C   0  0  0  0  0  0  0  0  0  0  0  0
   63.0724   -7.8070  -10.5989 C   0  0  0  0  0  0  0  0  0  0  0  0
   62.3664   -6.8657  -11.2114 N   0  0  0  0  0  0  0  0  0  0  0  0
   61.4010   -6.2303  -10.5089 C   0  0  0  0  0  0  0  0  0  0  0  0
   61.1195   -6.5093   -9.2171 C   0  0  0  0  0  0  0  0  0  0  0  0
   64.6904   -6.7115   -4.8352 C   0  0  0  0  0  0  0  0  0  0  0  0
   63.1843   -7.0733   -5.0763 C   0  0  0  0  0  0  0  0  0  0  0  0
   62.9993   -8.4993   -4.5485 C   0  0  0  0  0  0  0  0  0  0  0  0
   61.6924   -8.9957   -5.0355 C   0  0  0  0  0  0  0  0  0  0  0  0
   61.3404  -10.2547   -4.4861 N   0  0  0  0  0  0  0  0  0  0  0  0
   61.6777   -9.0824   -6.5859 C   0  0  0  0  0  0  0  0  0  0  0  0
   61.6684   -7.6454   -7.0978 C   0  0  0  0  0  0  0  0  0  0  0  0
   63.0345   -7.0775   -6.5372 C   0  0  0  0  0  0  0  0  0  0  0  0
   60.3978  -10.6071   -4.8015 H   0  0  0  0  0  0  0  0  0  0  0  0
   61.5014  -10.3992   -3.4819 H   0  0  0  0  0  0  0  0  0  0  0  0
 26 27  1  0  0  0
 27 28  1  0  0  0
 28 29  1  0  0  0
 29 30  1  0  0  0
 29 31  1  0  0  0
 31 32  1  0  0  0
 32 20  1  0  0  0
 20 21  2  0  0  0
 21 22  1  0  0  0
 22 23  2  0  0  0
 23 24  1  0  0  0
 24 25  2  0  0  0
 25  1  1  0  0  0
  1  2  1  0  0  0
  2  3  2  0  0  0
  2  5  1  0  0  0
  5  6  2  0  0  0
  6  7  1  0  0  0
  7 12  1  0  0  0
 12 13  2  0  0  0
 13 14  1  0  0  0
 13 15  1  0  0  0
 15 16  2  0  0  0
 16 17  1  0  0  0
 17 18  2  0  0  0
 18 19  1  0  0  0
  7  8  2  0  0  0
  8  9  1  0  0  0
  9 10  2  0  0  0
 10 11  1  0  0  0
 32 33  1  0  0  0
 33 27  1  0  0  0
 25 20  1  0  0  0
 10  5  1  0  0  0
 18 12  1  0  0  0
 30 34  1  0  0  0
 30 35  1  0  0  0
  1  4  1  0  0  0
M  END
> <minimizedAffinity>
-7.64178

> <CNNscore>
0.2921915650

> <CNNaffinity>
6.0786600113

> <CNN_VS>
1.7761331797

> <CNNaffinity_variance>
0.2546035051

$$$$
[H]c1nc([H])c(N([H])C(=O)c2nc(-c3c(F)c([H])c([H])c([H])c3F)c([H])c([H])c2F)c([C@@]2([H])C([H])([H])[C@@]([H])(N([H])[H])C([H])([H])[C@@]([H])(C([H])([H])[H])C2([H])[H])c1[H]


 35 38  0  0  0  0  0  0  0  0999 V2000
   58.5958   -5.6060   -8.5529 N   0  0  0  0  0  0  0  0  0  0  0  0
   59.7855   -5.9942   -9.1773 C   0  0  0  0  0  0  0  0  0  0  0  0
   59.9090   -5.8156  -10.4573 O   0  0  0  0  0  0  0  0  0  0  0  0
   58.5156   -5.7463   -7.5200 H   0  0  0  0  0  0  0  0  0  0  0  0
   60.9683   -6.5869   -8.5748 C   0  0  0  0  0  0  0  0  0  0  0  0
   60.8811   -7.1198   -7.3425 N   0  0  0  0  0  0  0  0  0  0  0  0
   61.8598   -7.7015   -6.6461 C   0  0  0  0  0  0  0  0  0  0  0  0
   63.1137   -7.7524   -7.2729 C   0  0  0  0  0  0  0  0  0  0  0  0
   63.2822   -7.2243   -8.5361 C   0  0  0  0  0  0  0  0  0  0  0  0
   62.1884   -6.6433   -9.1704 C   0  0  0  0  0  0  0  0  0  0  0  0
   62.4031   -6.1220  -10.4373 F   0  0  0  0  0  0  0  0  0  0  0  0
   61.7010   -8.3091   -5.3425 C   0  0  0  0  0  0  0  0  0  0  0  0
   61.1149   -9.5563   -5.1832 C   0  0  0  0  0  0  0  0  0  0  0  0
   60.6299  -10.2357   -6.2652 F   0  0  0  0  0  0  0  0  0  0  0  0
   60.9771  -10.1709   -3.9608 C   0  0  0  0  0  0  0  0  0  0  0  0
   61.4257   -9.5596   -2.8267 C   0  0  0  0  0  0  0  0  0  0  0  0
   62.0189   -8.3020   -2.9502 C   0  0  0  0  0  0  0  0  0  0  0  0
   62.1423   -7.7116   -4.1892 C   0  0  0  0  0  0  0  0  0  0  0  0
   62.7265   -6.4726   -4.3179 F   0  0  0  0  0  0  0  0  0  0  0  0
   56.3709   -4.7950   -8.5855 C   0  0  0  0  0  0  0  0  0  0  0  0
   55.3742   -4.1357   -9.3136 C   0  0  0  0  0  0  0  0  0  0  0  0
   55.5461   -3.7647  -10.6366 C   0  0  0  0  0  0  0  0  0  0  0  0
   56.6820   -4.0264  -11.2697 N   0  0  0  0  0  0  0  0  0  0  0  0
   57.6634   -4.6604  -10.5883 C   0  0  0  0  0  0  0  0  0  0  0  0
   57.5444   -5.0365   -9.2960 C   0  0  0  0  0  0  0  0  0  0  0  0
   52.5294   -6.2997   -6.2789 C   0  0  0  0  0  0  0  0  0  0  0  0
   54.0840   -6.3288   -6.0794 C   0  0  0  0  0  0  0  0  0  0  0  0
   54.3751   -5.4328   -4.8716 C   0  0  0  0  0  0  0  0  0  0  0  0
   55.8329   -5.1773   -4.8390 C   0  0  0  0  0  0  0  0  0  0  0  0
   56.2455   -4.4803   -3.6751 N   0  0  0  0  0  0  0  0  0  0  0  0
   56.2844   -4.3942   -6.1017 C   0  0  0  0  0  0  0  0  0  0  0  0
   56.1707   -5.3638   -7.2738 C   0  0  0  0  0  0  0  0  0  0  0  0
   54.6238   -5.6957   -7.2896 C   0  0  0  0  0  0  0  0  0  0  0  0
   57.2861   -4.3173   -3.6242 H   0  0  0  0  0  0  0  0  0  0  0  0
   55.8465   -4.7750   -2.7755 H   0  0  0  0  0  0  0  0  0  0  0  0
 26 27  1  0  0  0
 27 28  1  0  0  0
 28 29  1  0  0  0
 29 30  1  0  0  0
 29 31  1  0  0  0
 31 32  1  0  0  0
 32 20  1  0  0  0
 20 21  2  0  0  0
 21 22  1  0  0  0
 22 23  2  0  0  0
 23 24  1  0  0  0
 24 25  2  0  0  0
 25  1  1  0  0  0
  1  2  1  0  0  0
  2  3  2  0  0  0
  2  5  1  0  0  0
  5  6  2  0  0  0
  6  7  1  0  0  0
  7 12  1  0  0  0
 12 13  2  0  0  0
 13 14  1  0  0  0
 13 15  1  0  0  0
 15 16  2  0  0  0
 16 17  1  0  0  0
 17 18  2  0  0  0
 18 19  1  0  0  0
  7  8  2  0  0  0
  8  9  1  0  0  0
  9 10  2  0  0  0
 10 11  1  0  0  0
 32 33  1  0  0  0
 33 27  1  0  0  0
 25 20  1  0  0  0
 10  5  1  0  0  0
 18 12  1  0  0  0
 30 34  1  0  0  0
 30 35  1  0  0  0
  1  4  1  0  0  0
M  END
> <minimizedAffinity>
-8.02398

> <CNNscore>
0.2808796167

> <CNNaffinity>
6.2264847755

> <CNN_VS>
1.7488926649

> <CNNaffinity_variance>
0.2528932989

$$$$
[H]c1nc([H])c(N([H])C(=O)c2nc(-c3c(F)c([H])c([H])c([H])c3F)c([H])c([H])c2F)c([C@@]2([H])C([H])([H])[C@@]([H])(N([H])[H])C([H])([H])[C@@]([H])(C([H])([H])[H])C2([H])[H])c1[H]


 35 38  0  0  0  0  0  0  0  0999 V2000
   56.1322   -4.1209   -9.3868 N   0  0  0  0  0  0  0  0  0  0  0  0
   55.0895   -4.5338   -8.5513 C   0  0  0  0  0  0  0  0  0  0  0  0
   55.2805   -5.5493   -7.7654 O   0  0  0  0  0  0  0  0  0  0  0  0
   55.9668   -3.2950  -10.0061 H   0  0  0  0  0  0  0  0  0  0  0  0
   53.7609   -3.9594   -8.4163 C   0  0  0  0  0  0  0  0  0  0  0  0
   53.0082   -4.2880   -7.3507 N   0  0  0  0  0  0  0  0  0  0  0  0
   51.7770   -3.8556   -7.0710 C   0  0  0  0  0  0  0  0  0  0  0  0
   51.2121   -2.9670   -7.9979 C   0  0  0  0  0  0  0  0  0  0  0  0
   51.9219   -2.5850   -9.1174 C   0  0  0  0  0  0  0  0  0  0  0  0
   53.2018   -3.0976   -9.3059 C   0  0  0  0  0  0  0  0  0  0  0  0
   53.8781   -2.6901  -10.4458 F   0  0  0  0  0  0  0  0  0  0  0  0
   51.0290   -4.1980   -5.8805 C   0  0  0  0  0  0  0  0  0  0  0  0
   49.9327   -3.4556   -5.4665 C   0  0  0  0  0  0  0  0  0  0  0  0
   49.5494   -2.3425   -6.1606 F   0  0  0  0  0  0  0  0  0  0  0  0
   49.1857   -3.7738   -4.3568 C   0  0  0  0  0  0  0  0  0  0  0  0
   49.5035   -4.8639   -3.6005 C   0  0  0  0  0  0  0  0  0  0  0  0
   50.6028   -5.6326   -3.9872 C   0  0  0  0  0  0  0  0  0  0  0  0
   51.3322   -5.2877   -5.1043 C   0  0  0  0  0  0  0  0  0  0  0  0
   52.4163   -6.0413   -5.4912 F   0  0  0  0  0  0  0  0  0  0  0  0
   58.1555   -4.6072  -10.5177 C   0  0  0  0  0  0  0  0  0  0  0  0
   59.4209   -5.2009  -10.4530 C   0  0  0  0  0  0  0  0  0  0  0  0
   59.8447   -5.9233   -9.3502 C   0  0  0  0  0  0  0  0  0  0  0  0
   59.0509   -6.0795   -8.2990 N   0  0  0  0  0  0  0  0  0  0  0  0
   57.8231   -5.5134   -8.3340 C   0  0  0  0  0  0  0  0  0  0  0  0
   57.3680   -4.7955   -9.3843 C   0  0  0  0  0  0  0  0  0  0  0  0
   55.3156   -6.2440  -13.9233 C   0  0  0  0  0  0  0  0  0  0  0  0
   55.9239   -4.8667  -13.4868 C   0  0  0  0  0  0  0  0  0  0  0  0
   56.9056   -4.4654  -14.5921 C   0  0  0  0  0  0  0  0  0  0  0  0
   57.7287   -3.3460  -14.0812 C   0  0  0  0  0  0  0  0  0  0  0  0
   58.5759   -2.7869  -15.0714 N   0  0  0  0  0  0  0  0  0  0  0  0
   58.5797   -3.7976  -12.8633 C   0  0  0  0  0  0  0  0  0  0  0  0
   57.6036   -4.0096  -11.7103 C   0  0  0  0  0  0  0  0  0  0  0  0
   56.6754   -5.1664  -12.2611 C   0  0  0  0  0  0  0  0  0  0  0  0
   59.1468   -1.9690  -14.7292 H   0  0  0  0  0  0  0  0  0  0  0  0
   58.1790   -2.6294  -16.0058 H   0  0  0  0  0  0  0  0  0  0  0  0
 26 27  1  0  0  0
 27 28  1  0  0  0
 28 29  1  0  0  0
 29 30  1  0  0  0
 29 31  1  0  0  0
 31 32  1  0  0  0
 32 20  1  0  0  0
 20 21  2  0  0  0
 21 22  1  0  0  0
 22 23  2  0  0  0
 23 24  1  0  0  0
 24 25  2  0  0  0
 25  1  1  0  0  0
  1  2  1  0  0  0
  2  3  2  0  0  0
  2  5  1  0  0  0
  5  6  2  0  0  0
  6  7  1  0  0  0
  7 12  1  0  0  0
 12 13  2  0  0  0
 13 14  1  0  0  0
 13 15  1  0  0  0
 15 16  2  0  0  0
 16 17  1  0  0  0
 17 18  2  0  0  0
 18 19  1  0  0  0
  7  8  2  0  0  0
  8  9  1  0  0  0
  9 10  2  0  0  0
 10 11  1  0  0  0
 32 33  1  0  0  0
 33 27  1  0  0  0
 25 20  1  0  0  0
 10  5  1  0  0  0
 18 12  1  0  0  0
 30 34  1  0  0  0
 30 35  1  0  0  0
  1  4  1  0  0  0
M  END
> <minimizedAffinity>
-8.09915

> <CNNscore>
0.2262540460

> <CNNaffinity>
6.9471588135

> <CNN_VS>
1.5718227625

> <CNNaffinity_variance>
0.0633460656

$$$$
[H]c1nc([H])c(N([H])C(=O)c2nc(-c3c(F)c([H])c([H])c([H])c3F)c([H])c([H])c2F)c([C@@]2([H])C([H])([H])[C@@]([H])(N([H])[H])C([H])([H])[C@@]([H])(C([H])([H])[H])C2([H])[H])c1[H]


 35 38  0  0  0  0  0  0  0  0999 V2000
   53.2883   -5.5471   -6.0768 N   0  0  0  0  0  0  0  0  0  0  0  0
   54.0088   -4.7996   -7.0138 C   0  0  0  0  0  0  0  0  0  0  0  0
   53.4485   -3.7583   -7.5498 O   0  0  0  0  0  0  0  0  0  0  0  0
   53.7569   -6.3764   -5.6460 H   0  0  0  0  0  0  0  0  0  0  0  0
   55.3639   -5.0188   -7.4924 C   0  0  0  0  0  0  0  0  0  0  0  0
   55.6624   -4.7351   -8.7732 N   0  0  0  0  0  0  0  0  0  0  0  0
   56.8464   -4.8733   -9.3733 C   0  0  0  0  0  0  0  0  0  0  0  0
   57.8850   -5.3757   -8.5754 C   0  0  0  0  0  0  0  0  0  0  0  0
   57.6554   -5.6924   -7.2525 C   0  0  0  0  0  0  0  0  0  0  0  0
   56.3792   -5.5043   -6.7307 C   0  0  0  0  0  0  0  0  0  0  0  0
   56.1918   -5.8386   -5.3980 F   0  0  0  0  0  0  0  0  0  0  0  0
   57.1296   -4.5019  -10.7429 C   0  0  0  0  0  0  0  0  0  0  0  0
   56.1403   -4.0267  -11.5915 C   0  0  0  0  0  0  0  0  0  0  0  0
   54.8466   -3.9330  -11.1613 F   0  0  0  0  0  0  0  0  0  0  0  0
   56.3853   -3.6389  -12.8878 C   0  0  0  0  0  0  0  0  0  0  0  0
   57.6470   -3.7080  -13.4020 C   0  0  0  0  0  0  0  0  0  0  0  0
   58.6668   -4.1840  -12.5760 C   0  0  0  0  0  0  0  0  0  0  0  0
   58.3897   -4.5656  -11.2811 C   0  0  0  0  0  0  0  0  0  0  0  0
   59.3902   -5.0350  -10.4616 F   0  0  0  0  0  0  0  0  0  0  0  0
   51.6468   -5.3610   -4.3798 C   0  0  0  0  0  0  0  0  0  0  0  0
   50.3738   -4.9002   -4.0259 C   0  0  0  0  0  0  0  0  0  0  0  0
   49.5125   -4.3245   -4.9448 C   0  0  0  0  0  0  0  0  0  0  0  0
   49.8718   -4.1878   -6.2143 N   0  0  0  0  0  0  0  0  0  0  0  0
   51.0985   -4.6222   -6.5829 C   0  0  0  0  0  0  0  0  0  0  0  0
   51.9749   -5.1846   -5.7220 C   0  0  0  0  0  0  0  0  0  0  0  0
   50.7588   -8.3140   -0.7976 C   0  0  0  0  0  0  0  0  0  0  0  0
   51.9973   -7.8663   -1.6479 C   0  0  0  0  0  0  0  0  0  0  0  0
   52.9114   -7.0917   -0.6936 C   0  0  0  0  0  0  0  0  0  0  0  0
   53.9245   -6.3865   -1.5107 C   0  0  0  0  0  0  0  0  0  0  0  0
   54.9226   -5.7534   -0.7271 N   0  0  0  0  0  0  0  0  0  0  0  0
   53.2526   -5.3404   -2.4411 C   0  0  0  0  0  0  0  0  0  0  0  0
   52.4989   -6.1315   -3.5056 C   0  0  0  0  0  0  0  0  0  0  0  0
   51.4457   -6.9393   -2.6445 C   0  0  0  0  0  0  0  0  0  0  0  0
   55.6678   -5.2717   -1.2970 H   0  0  0  0  0  0  0  0  0  0  0  0
   55.3087   -6.2769    0.0680 H   0  0  0  0  0  0  0  0  0  0  0  0
 26 27  1  0  0  0
 27 28  1  0  0  0
 28 29  1  0  0  0
 29 30  1  0  0  0
 29 31  1  0  0  0
 31 32  1  0  0  0
 32 20  1  0  0  0
 20 21  2  0  0  0
 21 22  1  0  0  0
 22 23  2  0  0  0
 23 24  1  0  0  0
 24 25  2  0  0  0
 25  1  1  0  0  0
  1  2  1  0  0  0
  2  3  2  0  0  0
  2  5  1  0  0  0
  5  6  2  0  0  0
  6  7  1  0  0  0
  7 12  1  0  0  0
 12 13  2  0  0  0
 13 14  1  0  0  0
 13 15  1  0  0  0
 15 16  2  0  0  0
 16 17  1  0  0  0
 17 18  2  0  0  0
 18 19  1  0  0  0
  7  8  2  0  0  0
  8  9  1  0  0  0
  9 10  2  0  0  0
 10 11  1  0  0  0
 32 33  1  0  0  0
 33 27  1  0  0  0
 25 20  1  0  0  0
 10  5  1  0  0  0
 18 12  1  0  0  0
 30 34  1  0  0  0
 30 35  1  0  0  0
  1  4  1  0  0  0
M  END
> <minimizedAffinity>
-9.26284

> <CNNscore>
0.2163528502

> <CNNaffinity>
7.1287779808

> <CNN_VS>
1.5423314571

> <CNNaffinity_variance>
0.2458347976

$$$$
[H]c1nc([H])c(N([H])C(=O)c2nc(-c3c(F)c([H])c([H])c([H])c3F)c([H])c([H])c2F)c([C@@]2([H])C([H])([H])[C@@]([H])(N([H])[H])C([H])([H])[C@@]([H])(C([H])([H])[H])C2([H])[H])c1[H]


 35 38  0  0  0  0  0  0  0  0999 V2000
   60.5978   -6.1960  -10.0012 N   0  0  0  0  0  0  0  0  0  0  0  0
   59.4531   -5.7652   -9.3231 C   0  0  0  0  0  0  0  0  0  0  0  0
   59.4129   -5.8723   -8.0298 O   0  0  0  0  0  0  0  0  0  0  0  0
   60.6195   -6.0934  -11.0413 H   0  0  0  0  0  0  0  0  0  0  0  0
   58.2456   -5.1750   -9.8770 C   0  0  0  0  0  0  0  0  0  0  0  0
   57.1254   -5.1493   -9.1322 N   0  0  0  0  0  0  0  0  0  0  0  0
   55.9386   -4.6484   -9.4807 C   0  0  0  0  0  0  0  0  0  0  0  0
   55.8583   -4.0964  -10.7678 C   0  0  0  0  0  0  0  0  0  0  0  0
   56.9646   -4.0883  -11.5918 C   0  0  0  0  0  0  0  0  0  0  0  0
   58.1539   -4.6367  -11.1214 C   0  0  0  0  0  0  0  0  0  0  0  0
   59.2398   -4.6107  -11.9834 F   0  0  0  0  0  0  0  0  0  0  0  0
   54.7761   -4.5965   -8.6205 C   0  0  0  0  0  0  0  0  0  0  0  0
   54.7301   -5.2747   -7.4112 C   0  0  0  0  0  0  0  0  0  0  0  0
   55.7815   -6.0522   -7.0140 F   0  0  0  0  0  0  0  0  0  0  0  0
   53.6514   -5.2205   -6.5602 C   0  0  0  0  0  0  0  0  0  0  0  0
   52.5551   -4.4752   -6.8823 C   0  0  0  0  0  0  0  0  0  0  0  0
   52.5666   -3.7813   -8.0936 C   0  0  0  0  0  0  0  0  0  0  0  0
   53.6625   -3.8559   -8.9256 C   0  0  0  0  0  0  0  0  0  0  0  0
   53.6805   -3.1740  -10.1205 F   0  0  0  0  0  0  0  0  0  0  0  0
   62.7715   -7.1328  -10.0833 C   0  0  0  0  0  0  0  0  0  0  0  0
   63.8840   -7.5780   -9.3607 C   0  0  0  0  0  0  0  0  0  0  0  0
   63.8954   -7.6318   -7.9771 C   0  0  0  0  0  0  0  0  0  0  0  0
   62.8329   -7.2563   -7.2774 N   0  0  0  0  0  0  0  0  0  0  0  0
   61.7446   -6.8189   -7.9509 C   0  0  0  0  0  0  0  0  0  0  0  0
   61.6884   -6.7432   -9.2988 C   0  0  0  0  0  0  0  0  0  0  0  0
   65.2231   -9.4822  -13.3715 C   0  0  0  0  0  0  0  0  0  0  0  0
   63.8979   -8.6483  -13.2922 C   0  0  0  0  0  0  0  0  0  0  0  0
   64.1441   -7.3787  -14.1130 C   0  0  0  0  0  0  0  0  0  0  0  0
   63.0521   -6.4261  -13.8107 C   0  0  0  0  0  0  0  0  0  0  0  0
   63.0886   -5.2671  -14.6271 N   0  0  0  0  0  0  0  0  0  0  0  0
   63.0811   -6.0097  -12.3150 C   0  0  0  0  0  0  0  0  0  0  0  0
   62.6461   -7.2354  -11.5178 C   0  0  0  0  0  0  0  0  0  0  0  0
   63.7724   -8.2879  -11.8740 C   0  0  0  0  0  0  0  0  0  0  0  0
   62.2989   -4.5929  -14.4429 H   0  0  0  0  0  0  0  0  0  0  0  0
   63.2745   -5.3948  -15.6293 H   0  0  0  0  0  0  0  0  0  0  0  0
 26 27  1  0  0  0
 27 28  1  0  0  0
 28 29  1  0  0  0
 29 30  1  0  0  0
 29 31  1  0  0  0
 31 32  1  0  0  0
 32 20  1  0  0  0
 20 21  2  0  0  0
 21 22  1  0  0  0
 22 23  2  0  0  0
 23 24  1  0  0  0
 24 25  2  0  0  0
 25  1  1  0  0  0
  1  2  1  0  0  0
  2  3  2  0  0  0
  2  5  1  0  0  0
  5  6  2  0  0  0
  6  7  1  0  0  0
  7 12  1  0  0  0
 12 13  2  0  0  0
 13 14  1  0  0  0
 13 15  1  0  0  0
 15 16  2  0  0  0
 16 17  1  0  0  0
 17 18  2  0  0  0
 18 19  1  0  0  0
  7  8  2  0  0  0
  8  9  1  0  0  0
  9 10  2  0  0  0
 10 11  1  0  0  0
 32 33  1  0  0  0
 33 27  1  0  0  0
 25 20  1  0  0  0
 10  5  1  0  0  0
 18 12  1  0  0  0
 30 34  1  0  0  0
 30 35  1  0  0  0
  1  4  1  0  0  0
M  END
> <minimizedAffinity>
-8.14331

> <CNNscore>
0.1900521964

> <CNNaffinity>
5.6367921829

> <CNN_VS>
1.0712847710

> <CNNaffinity_variance>
0.2263711989

$$$$
[H]OC(=O)C1(C([H])([H])c2c([H])nc(OC([H])([H])C([H])([H])c3nc(-c4c([H])c([H])c([H])c(Cl)c4[H])oc3C([H])([H])[H])c([H])c2[H])OC([H])([H])C([H])([H])C1([H])[H]


 32 35  0  0  0  0  0  0  0  0999 V2000
   53.8760   -4.1351   -8.7746 O   0  0  0  0  0  0  0  0  0  0  0  0
   53.1664   -4.6937   -7.7258 C   0  0  0  0  0  0  0  0  0  0  0  0
   51.9369   -4.1258   -7.3534 C   0  0  0  0  0  0  0  0  0  0  0  0
   51.2070   -4.6627   -6.3101 C   0  0  0  0  0  0  0  0  0  0  0  0
   51.6509   -5.7617   -5.6035 C   0  0  0  0  0  0  0  0  0  0  0  0
   52.8537   -6.2768   -6.0048 C   0  0  0  0  0  0  0  0  0  0  0  0
   53.5556   -5.7505   -7.0177 N   0  0  0  0  0  0  0  0  0  0  0  0
   50.8742   -6.3296   -4.5019 C   0  0  0  0  0  0  0  0  0  0  0  0
   50.6467   -5.4738   -3.3101 C   0  0  0  0  0  0  0  0  0  0  0  0
   50.5726   -6.3202   -2.0480 C   0  0  0  0  0  0  0  0  0  0  0  0
   52.0418   -6.6389   -1.8522 C   0  0  0  0  0  0  0  0  0  0  0  0
   52.7054   -5.4444   -2.4448 C   0  0  0  0  0  0  0  0  0  0  0  0
   51.7930   -4.6797   -3.1268 O   0  0  0  0  0  0  0  0  0  0  0  0
   49.4997   -4.5462   -3.3941 C   0  0  0  0  0  0  0  0  0  0  0  0
   48.3086   -4.9373   -3.1323 O   0  0  0  0  0  0  0  0  0  0  0  0
   49.5927   -3.2116   -3.7530 O   0  0  0  0  0  0  0  0  0  0  0  0
   49.0665   -2.5455   -3.2052 H   0  0  0  0  0  0  0  0  0  0  0  0
   54.9636   -3.2670   -8.6828 C   0  0  0  0  0  0  0  0  0  0  0  0
   56.2258   -4.0751   -8.4187 C   0  0  0  0  0  0  0  0  0  0  0  0
   58.9010   -5.6592   -8.9636 C   0  0  0  0  0  0  0  0  0  0  0  0
   57.9944   -5.0653   -9.9809 C   0  0  0  0  0  0  0  0  0  0  0  0
   58.1521   -5.0956  -11.2734 O   0  0  0  0  0  0  0  0  0  0  0  0
   57.1796   -4.4825  -11.8871 C   0  0  0  0  0  0  0  0  0  0  0  0
   56.3451   -4.0302  -10.9379 N   0  0  0  0  0  0  0  0  0  0  0  0
   56.8166   -4.3727   -9.7268 C   0  0  0  0  0  0  0  0  0  0  0  0
   57.0151   -4.3121  -13.3229 C   0  0  0  0  0  0  0  0  0  0  0  0
   56.0422   -4.9472  -14.0633 C   0  0  0  0  0  0  0  0  0  0  0  0
   55.9112   -4.7621  -15.4245 C   0  0  0  0  0  0  0  0  0  0  0  0
   56.7632   -3.9205  -16.1082 C   0  0  0  0  0  0  0  0  0  0  0  0
   57.7546   -3.2644  -15.3956 C   0  0  0  0  0  0  0  0  0  0  0  0
   58.8688   -2.1780  -16.2219 Cl  0  0  0  0  0  0  0  0  0  0  0  0
   57.8672   -3.4638  -14.0375 C   0  0  0  0  0  0  0  0  0  0  0  0
 20 21  1  0  0  0
 21 22  1  0  0  0
 22 23  1  0  0  0
 23 26  1  0  0  0
 26 27  2  0  0  0
 27 28  1  0  0  0
 28 29  2  0  0  0
 29 30  1  0  0  0
 30 31  1  0  0  0
 30 32  2  0  0  0
 23 24  2  0  0  0
 24 25  1  0  0  0
 25 19  1  0  0  0
 19 18  1  0  0  0
 18  1  1  0  0  0
  1  2  1  0  0  0
  2  3  2  0  0  0
  3  4  1  0  0  0
  4  5  2  0  0  0
  5  8  1  0  0  0
  8  9  1  0  0  0
  9 14  1  0  0  0
 14 15  2  0  0  0
 14 16  1  0  0  0
  9 10  1  0  0  0
 10 11  1  0  0  0
 11 12  1  0  0  0
 12 13  1  0  0  0
  5  6  1  0  0  0
  6  7  2  0  0  0
 25 21  2  0  0  0
  7  2  1  0  0  0
 32 26  1  0  0  0
 13  9  1  0  0  0
 16 17  1  0  0  0
M  END
> <minimizedAffinity>
-8.57229

> <CNNscore>
0.4426222146

> <CNNaffinity>
6.4103379250

> <CNN_VS>
2.8373579979

> <CNNaffinity_variance>
0.1407660991

$$$$
[H]OC(=O)C1(C([H])([H])c2c([H])nc(OC([H])([H])C([H])([H])c3nc(-c4c([H])c([H])c([H])c(Cl)c4[H])oc3C([H])([H])[H])c([H])c2[H])OC([H])([H])C([H])([H])C1([H])[H]


 32 35  0  0  0  0  0  0  0  0999 V2000
   56.5027   -3.7725  -13.4156 O   0  0  0  0  0  0  0  0  0  0  0  0
   57.6300   -3.5831  -14.1960 C   0  0  0  0  0  0  0  0  0  0  0  0
   57.4767   -3.3479  -15.5723 C   0  0  0  0  0  0  0  0  0  0  0  0
   58.5844   -3.1554  -16.3756 C   0  0  0  0  0  0  0  0  0  0  0  0
   59.8659   -3.1861  -15.8647 C   0  0  0  0  0  0  0  0  0  0  0  0
   59.9611   -3.4191  -14.5194 C   0  0  0  0  0  0  0  0  0  0  0  0
   58.8821   -3.6048  -13.7470 N   0  0  0  0  0  0  0  0  0  0  0  0
   61.0362   -2.9785  -16.7172 C   0  0  0  0  0  0  0  0  0  0  0  0
   62.1797   -3.9109  -16.5518 C   0  0  0  0  0  0  0  0  0  0  0  0
   63.2078   -3.6998  -17.6532 C   0  0  0  0  0  0  0  0  0  0  0  0
   63.8572   -2.4173  -17.1717 C   0  0  0  0  0  0  0  0  0  0  0  0
   63.7030   -2.5211  -15.6939 C   0  0  0  0  0  0  0  0  0  0  0  0
   62.8580   -3.5533  -15.3727 O   0  0  0  0  0  0  0  0  0  0  0  0
   61.8300   -5.3404  -16.4203 C   0  0  0  0  0  0  0  0  0  0  0  0
   61.1060   -5.9304  -17.2968 O   0  0  0  0  0  0  0  0  0  0  0  0
   62.2322   -6.1552  -15.3749 O   0  0  0  0  0  0  0  0  0  0  0  0
   62.5646   -7.0802  -15.6083 H   0  0  0  0  0  0  0  0  0  0  0  0
   56.4137   -4.5124  -12.2368 C   0  0  0  0  0  0  0  0  0  0  0  0
   56.9802   -3.6906  -11.0881 C   0  0  0  0  0  0  0  0  0  0  0  0
   57.8974   -5.2834   -8.5221 C   0  0  0  0  0  0  0  0  0  0  0  0
   56.5542   -4.6993   -8.7751 C   0  0  0  0  0  0  0  0  0  0  0  0
   55.5241   -4.7483   -7.9797 O   0  0  0  0  0  0  0  0  0  0  0  0
   54.4941   -4.1387   -8.4951 C   0  0  0  0  0  0  0  0  0  0  0  0
   54.8797   -3.6683   -9.6917 N   0  0  0  0  0  0  0  0  0  0  0  0
   56.1647   -3.9967   -9.9091 C   0  0  0  0  0  0  0  0  0  0  0  0
   53.1739   -3.9881   -7.9015 C   0  0  0  0  0  0  0  0  0  0  0  0
   52.2949   -2.9807   -8.2339 C   0  0  0  0  0  0  0  0  0  0  0  0
   51.0480   -2.8672   -7.6537 C   0  0  0  0  0  0  0  0  0  0  0  0
   50.6263   -3.7723   -6.7026 C   0  0  0  0  0  0  0  0  0  0  0  0
   51.4845   -4.7995   -6.3432 C   0  0  0  0  0  0  0  0  0  0  0  0
   50.9936   -5.9823   -5.1332 Cl  0  0  0  0  0  0  0  0  0  0  0  0
   52.7246   -4.8939   -6.9351 C   0  0  0  0  0  0  0  0  0  0  0  0
 20 21  1  0  0  0
 21 22  1  0  0  0
 22 23  1  0  0  0
 23 26  1  0  0  0
 26 27  2  0  0  0
 27 28  1  0  0  0
 28 29  2  0  0  0
 29 30  1  0  0  0
 30 31  1  0  0  0
 30 32  2  0  0  0
 23 24  2  0  0  0
 24 25  1  0  0  0
 25 19  1  0  0  0
 19 18  1  0  0  0
 18  1  1  0  0  0
  1  2  1  0  0  0
  2  3  2  0  0  0
  3  4  1  0  0  0
  4  5  2  0  0  0
  5  8  1  0  0  0
  8  9  1  0  0  0
  9 14  1  0  0  0
 14 15  2  0  0  0
 14 16  1  0  0  0
  9 10  1  0  0  0
 10 11  1  0  0  0
 11 12  1  0  0  0
 12 13  1  0  0  0
  5  6  1  0  0  0
  6  7  2  0  0  0
 25 21  2  0  0  0
  7  2  1  0  0  0
 32 26  1  0  0  0
 13  9  1  0  0  0
 16 17  1  0  0  0
M  END
> <minimizedAffinity>
-7.87855

> <CNNscore>
0.4314159751

> <CNNaffinity>
6.0838789940

> <CNN_VS>
2.6246826649

> <CNNaffinity_variance>
0.2933660448

$$$$
[H]OC(=O)C1(C([H])([H])c2c([H])nc(OC([H])([H])C([H])([H])c3nc(-c4c([H])c([H])c([H])c(Cl)c4[H])oc3C([H])([H])[H])c([H])c2[H])OC([H])([H])C([H])([H])C1([H])[H]


 32 35  0  0  0  0  0  0  0  0999 V2000
   52.5672   -4.8236   -8.2162 O   0  0  0  0  0  0  0  0  0  0  0  0
   52.9082   -5.3538   -6.9840 C   0  0  0  0  0  0  0  0  0  0  0  0
   53.9567   -6.2854   -6.9074 C   0  0  0  0  0  0  0  0  0  0  0  0
   54.3186   -6.8311   -5.6906 C   0  0  0  0  0  0  0  0  0  0  0  0
   53.6737   -6.4872   -4.5201 C   0  0  0  0  0  0  0  0  0  0  0  0
   52.6599   -5.5769   -4.6486 C   0  0  0  0  0  0  0  0  0  0  0  0
   52.3148   -5.0522   -5.8322 N   0  0  0  0  0  0  0  0  0  0  0  0
   54.0617   -7.0641   -3.2332 C   0  0  0  0  0  0  0  0  0  0  0  0
   54.7461   -6.1748   -2.2610 C   0  0  0  0  0  0  0  0  0  0  0  0
   53.7724   -5.1556   -1.6883 C   0  0  0  0  0  0  0  0  0  0  0  0
   52.9999   -6.0348   -0.7246 C   0  0  0  0  0  0  0  0  0  0  0  0
   54.0176   -7.0524   -0.3407 C   0  0  0  0  0  0  0  0  0  0  0  0
   55.1193   -6.9568   -1.1530 O   0  0  0  0  0  0  0  0  0  0  0  0
   55.9766   -5.5171   -2.7469 C   0  0  0  0  0  0  0  0  0  0  0  0
   56.8514   -6.1622   -3.4245 O   0  0  0  0  0  0  0  0  0  0  0  0
   56.2976   -4.1880   -2.5254 O   0  0  0  0  0  0  0  0  0  0  0  0
   56.6631   -3.6619   -3.3067 H   0  0  0  0  0  0  0  0  0  0  0  0
   53.3795   -4.0600   -9.0542 C   0  0  0  0  0  0  0  0  0  0  0  0
   54.6610   -3.7020   -8.3157 C   0  0  0  0  0  0  0  0  0  0  0  0
   57.2763   -5.3455   -7.6661 C   0  0  0  0  0  0  0  0  0  0  0  0
   56.9264   -4.7028   -8.9600 C   0  0  0  0  0  0  0  0  0  0  0  0
   57.6432   -4.7066  -10.0474 O   0  0  0  0  0  0  0  0  0  0  0  0
   57.0547   -4.0526  -11.0088 C   0  0  0  0  0  0  0  0  0  0  0  0
   55.8911   -3.6003  -10.5155 N   0  0  0  0  0  0  0  0  0  0  0  0
   55.7687   -3.9844   -9.2334 C   0  0  0  0  0  0  0  0  0  0  0  0
   57.5497   -3.8435  -12.3612 C   0  0  0  0  0  0  0  0  0  0  0  0
   58.8853   -3.7276  -12.6788 C   0  0  0  0  0  0  0  0  0  0  0  0
   59.3225   -3.5320  -13.9730 C   0  0  0  0  0  0  0  0  0  0  0  0
   58.4249   -3.4432  -15.0161 C   0  0  0  0  0  0  0  0  0  0  0  0
   57.0725   -3.5554  -14.7340 C   0  0  0  0  0  0  0  0  0  0  0  0
   55.8846   -3.4491  -16.0309 Cl  0  0  0  0  0  0  0  0  0  0  0  0
   56.6583   -3.7503  -13.4350 C   0  0  0  0  0  0  0  0  0  0  0  0
 20 21  1  0  0  0
 21 22  1  0  0  0
 22 23  1  0  0  0
 23 26  1  0  0  0
 26 27  2  0  0  0
 27 28  1  0  0  0
 28 29  2  0  0  0
 29 30  1  0  0  0
 30 31  1  0  0  0
 30 32  2  0  0  0
 23 24  2  0  0  0
 24 25  1  0  0  0
 25 19  1  0  0  0
 19 18  1  0  0  0
 18  1  1  0  0  0
  1  2  1  0  0  0
  2  3  2  0  0  0
  3  4  1  0  0  0
  4  5  2  0  0  0
  5  8  1  0  0  0
  8  9  1  0  0  0
  9 14  1  0  0  0
 14 15  2  0  0  0
 14 16  1  0  0  0
  9 10  1  0  0  0
 10 11  1  0  0  0
 11 12  1  0  0  0
 12 13  1  0  0  0
  5  6  1  0  0  0
  6  7  2  0  0  0
 25 21  2  0  0  0
  7  2  1  0  0  0
 32 26  1  0  0  0
 13  9  1  0  0  0
 16 17  1  0  0  0
M  END
> <minimizedAffinity>
-7.91042

> <CNNscore>
0.3037820458

> <CNNaffinity>
6.1358251572

> <CNN_VS>
1.8639534712

> <CNNaffinity_variance>
0.2461498231

$$$$
[H]OC(=O)C1(C([H])([H])c2c([H])nc(OC([H])([H])C([H])([H])c3nc(-c4c([H])c([H])c([H])c(Cl)c4[H])oc3C([H])([H])[H])c([H])c2[H])OC([H])([H])C([H])([H])C1([H])[H]


 32 35  0  0  0  0  0  0  0  0999 V2000
   52.5930   -5.6292   -7.4122 O   0  0  0  0  0  0  0  0  0  0  0  0
   53.2932   -6.1268   -6.3270 C   0  0  0  0  0  0  0  0  0  0  0  0
   52.9300   -5.7174   -5.0333 C   0  0  0  0  0  0  0  0  0  0  0  0
   53.6115   -6.1980   -3.9316 C   0  0  0  0  0  0  0  0  0  0  0  0
   54.6604   -7.0859   -4.0571 C   0  0  0  0  0  0  0  0  0  0  0  0
   54.9750   -7.4527   -5.3375 C   0  0  0  0  0  0  0  0  0  0  0  0
   54.3093   -6.9823   -6.4009 N   0  0  0  0  0  0  0  0  0  0  0  0
   55.3774   -7.5953   -2.8884 C   0  0  0  0  0  0  0  0  0  0  0  0
   56.7223   -7.0317   -2.6092 C   0  0  0  0  0  0  0  0  0  0  0  0
   56.7186   -5.5208   -2.7875 C   0  0  0  0  0  0  0  0  0  0  0  0
   56.0023   -5.1028   -1.5184 C   0  0  0  0  0  0  0  0  0  0  0  0
   56.3821   -6.1867   -0.5700 C   0  0  0  0  0  0  0  0  0  0  0  0
   56.9900   -7.2177   -1.2410 O   0  0  0  0  0  0  0  0  0  0  0  0
   57.8440   -7.6495   -3.3463 C   0  0  0  0  0  0  0  0  0  0  0  0
   58.4629   -8.6696   -2.8810 O   0  0  0  0  0  0  0  0  0  0  0  0
   58.3228   -7.2035   -4.5672 O   0  0  0  0  0  0  0  0  0  0  0  0
   58.5250   -7.9009   -5.2697 H   0  0  0  0  0  0  0  0  0  0  0  0
   53.0642   -4.7402   -8.3780 C   0  0  0  0  0  0  0  0  0  0  0  0
   54.2797   -4.0067   -7.8299 C   0  0  0  0  0  0  0  0  0  0  0  0
   57.1328   -5.2400   -7.2804 C   0  0  0  0  0  0  0  0  0  0  0  0
   56.6185   -4.7277   -8.5775 C   0  0  0  0  0  0  0  0  0  0  0  0
   57.2610   -4.6982   -9.7100 O   0  0  0  0  0  0  0  0  0  0  0  0
   56.5297   -4.1875  -10.6601 C   0  0  0  0  0  0  0  0  0  0  0  0
   55.3469   -3.8687  -10.1113 N   0  0  0  0  0  0  0  0  0  0  0  0
   55.3577   -4.1899   -8.8062 C   0  0  0  0  0  0  0  0  0  0  0  0
   56.9072   -3.9930  -12.0520 C   0  0  0  0  0  0  0  0  0  0  0  0
   56.0084   -3.9883  -13.0961 C   0  0  0  0  0  0  0  0  0  0  0  0
   56.3988   -3.7986  -14.4060 C   0  0  0  0  0  0  0  0  0  0  0  0
   57.7257   -3.6035  -14.7265 C   0  0  0  0  0  0  0  0  0  0  0  0
   58.6586   -3.6021  -13.7014 C   0  0  0  0  0  0  0  0  0  0  0  0
   60.3666   -3.3568  -14.0576 Cl  0  0  0  0  0  0  0  0  0  0  0  0
   58.2469   -3.7933  -12.4011 C   0  0  0  0  0  0  0  0  0  0  0  0
 20 21  1  0  0  0
 21 22  1  0  0  0
 22 23  1  0  0  0
 23 26  1  0  0  0
 26 27  2  0  0  0
 27 28  1  0  0  0
 28 29  2  0  0  0
 29 30  1  0  0  0
 30 31  1  0  0  0
 30 32  2  0  0  0
 23 24  2  0  0  0
 24 25  1  0  0  0
 25 19  1  0  0  0
 19 18  1  0  0  0
 18  1  1  0  0  0
  1  2  1  0  0  0
  2  3  2  0  0  0
  3  4  1  0  0  0
  4  5  2  0  0  0
  5  8  1  0  0  0
  8  9  1  0  0  0
  9 14  1  0  0  0
 14 15  2  0  0  0
 14 16  1  0  0  0
  9 10  1  0  0  0
 10 11  1  0  0  0
 11 12  1  0  0  0
 12 13  1  0  0  0
  5  6  1  0  0  0
  6  7  2  0  0  0
 25 21  2  0  0  0
  7  2  1  0  0  0
 32 26  1  0  0  0
 13  9  1  0  0  0
 16 17  1  0  0  0
M  END
> <minimizedAffinity>
-7.65826

> <CNNscore>
0.2786540985

> <CNNaffinity>
5.9956908226

> <CNN_VS>
1.6707237959

> <CNNaffinity_variance>
0.2482672632

$$$$
[H]OC(=O)C1(C([H])([H])c2c([H])nc(OC([H])([H])C([H])([H])c3nc(-c4c([H])c([H])c([H])c(Cl)c4[H])oc3C([H])([H])[H])c([H])c2[H])OC([H])([H])C([H])([H])C1([H])[H]


 32 35  0  0  0  0  0  0  0  0999 V2000
   58.6968   -6.2239  -10.1733 O   0  0  0  0  0  0  0  0  0  0  0  0
   59.8384   -6.8250   -9.6721 C   0  0  0  0  0  0  0  0  0  0  0  0
   60.6278   -6.1257   -8.7443 C   0  0  0  0  0  0  0  0  0  0  0  0
   61.7728   -6.7012   -8.2274 C   0  0  0  0  0  0  0  0  0  0  0  0
   62.1796   -7.9670   -8.5969 C   0  0  0  0  0  0  0  0  0  0  0  0
   61.3771   -8.6053   -9.5032 C   0  0  0  0  0  0  0  0  0  0  0  0
   60.2681   -8.0406  -10.0000 N   0  0  0  0  0  0  0  0  0  0  0  0
   63.3903   -8.5745   -8.0452 C   0  0  0  0  0  0  0  0  0  0  0  0
   63.2312   -9.4972   -6.8929 C   0  0  0  0  0  0  0  0  0  0  0  0
   63.3239  -10.9458   -7.3485 C   0  0  0  0  0  0  0  0  0  0  0  0
   64.8202  -11.0647   -7.5612 C   0  0  0  0  0  0  0  0  0  0  0  0
   65.3583  -10.0948   -6.5671 C   0  0  0  0  0  0  0  0  0  0  0  0
   64.3447   -9.3279   -6.0504 O   0  0  0  0  0  0  0  0  0  0  0  0
   62.0325   -9.2805   -6.0566 C   0  0  0  0  0  0  0  0  0  0  0  0
   62.0448   -8.4517   -5.0802 O   0  0  0  0  0  0  0  0  0  0  0  0
   60.8215   -9.9287   -6.2354 O   0  0  0  0  0  0  0  0  0  0  0  0
   59.9822   -9.3692   -6.1778 H   0  0  0  0  0  0  0  0  0  0  0  0
   58.1316   -5.0191   -9.7561 C   0  0  0  0  0  0  0  0  0  0  0  0
   57.3344   -5.2571   -8.4819 C   0  0  0  0  0  0  0  0  0  0  0  0
   56.2094   -4.1260  -11.2055 C   0  0  0  0  0  0  0  0  0  0  0  0
   55.4839   -4.2175   -9.9114 C   0  0  0  0  0  0  0  0  0  0  0  0
   54.2581   -3.8427   -9.6806 O   0  0  0  0  0  0  0  0  0  0  0  0
   53.9190   -4.0576   -8.4408 C   0  0  0  0  0  0  0  0  0  0  0  0
   54.9858   -4.6026   -7.8352 N   0  0  0  0  0  0  0  0  0  0  0  0
   55.9907   -4.7214   -8.7196 C   0  0  0  0  0  0  0  0  0  0  0  0
   52.6362   -3.7683   -7.8174 C   0  0  0  0  0  0  0  0  0  0  0  0
   51.8461   -2.6914   -8.1547 C   0  0  0  0  0  0  0  0  0  0  0  0
   50.6323   -2.4462   -7.5456 C   0  0  0  0  0  0  0  0  0  0  0  0
   50.1553   -3.2831   -6.5589 C   0  0  0  0  0  0  0  0  0  0  0  0
   50.9237   -4.3773   -6.1935 C   0  0  0  0  0  0  0  0  0  0  0  0
   50.3592   -5.4775   -4.9385 Cl  0  0  0  0  0  0  0  0  0  0  0  0
   52.1321   -4.6030   -6.8147 C   0  0  0  0  0  0  0  0  0  0  0  0
 20 21  1  0  0  0
 21 22  1  0  0  0
 22 23  1  0  0  0
 23 26  1  0  0  0
 26 27  2  0  0  0
 27 28  1  0  0  0
 28 29  2  0  0  0
 29 30  1  0  0  0
 30 31  1  0  0  0
 30 32  2  0  0  0
 23 24  2  0  0  0
 24 25  1  0  0  0
 25 19  1  0  0  0
 19 18  1  0  0  0
 18  1  1  0  0  0
  1  2  1  0  0  0
  2  3  2  0  0  0
  3  4  1  0  0  0
  4  5  2  0  0  0
  5  8  1  0  0  0
  8  9  1  0  0  0
  9 14  1  0  0  0
 14 15  2  0  0  0
 14 16  1  0  0  0
  9 10  1  0  0  0
 10 11  1  0  0  0
 11 12  1  0  0  0
 12 13  1  0  0  0
  5  6  1  0  0  0
  6  7  2  0  0  0
 25 21  2  0  0  0
  7  2  1  0  0  0
 32 26  1  0  0  0
 13  9  1  0  0  0
 16 17  1  0  0  0
M  END
> <minimizedAffinity>
-8.22734

> <CNNscore>
0.2713188827

> <CNNaffinity>
5.7900018692

> <CNN_VS>
1.5709367990

> <CNNaffinity_variance>
0.1313838363

$$$$
[H]OC(=O)C1(C([H])([H])c2c([H])nc(OC([H])([H])C([H])([H])c3nc(-c4c([H])c([H])c([H])c(Cl)c4[H])oc3C([H])([H])[H])c([H])c2[H])OC([H])([H])C([H])([H])C1([H])[H]


 32 35  0  0  0  0  0  0  0  0999 V2000
   55.4728   -4.2663  -12.4660 O   0  0  0  0  0  0  0  0  0  0  0  0
   56.8077   -3.9065  -12.4020 C   0  0  0  0  0  0  0  0  0  0  0  0
   57.5647   -3.8756  -13.5848 C   0  0  0  0  0  0  0  0  0  0  0  0
   58.8995   -3.5200  -13.5507 C   0  0  0  0  0  0  0  0  0  0  0  0
   59.5320   -3.1861  -12.3706 C   0  0  0  0  0  0  0  0  0  0  0  0
   58.7514   -3.2323  -11.2474 C   0  0  0  0  0  0  0  0  0  0  0  0
   57.4575   -3.5781  -11.2886 N   0  0  0  0  0  0  0  0  0  0  0  0
   60.9442   -2.8068  -12.3386 C   0  0  0  0  0  0  0  0  0  0  0  0
   61.9419   -3.8449  -12.7011 C   0  0  0  0  0  0  0  0  0  0  0  0
   62.1398   -3.8958  -14.2087 C   0  0  0  0  0  0  0  0  0  0  0  0
   62.9849   -2.6534  -14.4103 C   0  0  0  0  0  0  0  0  0  0  0  0
   63.7190   -2.5580  -13.1178 C   0  0  0  0  0  0  0  0  0  0  0  0
   63.1908   -3.4328  -12.2023 O   0  0  0  0  0  0  0  0  0  0  0  0
   61.6934   -5.1945  -12.1534 C   0  0  0  0  0  0  0  0  0  0  0  0
   60.8454   -5.9859  -12.6965 O   0  0  0  0  0  0  0  0  0  0  0  0
   62.3263   -5.7194  -11.0387 O   0  0  0  0  0  0  0  0  0  0  0  0
   62.6528   -6.6737  -11.0961 H   0  0  0  0  0  0  0  0  0  0  0  0
   54.3807   -3.4127  -12.6203 C   0  0  0  0  0  0  0  0  0  0  0  0
   54.4939   -2.2723  -11.6191 C   0  0  0  0  0  0  0  0  0  0  0  0
   55.6343   -1.0150   -8.9580 C   0  0  0  0  0  0  0  0  0  0  0  0
   54.9765   -2.3396   -9.1068 C   0  0  0  0  0  0  0  0  0  0  0  0
   54.7610   -3.2097   -8.1620 O   0  0  0  0  0  0  0  0  0  0  0  0
   54.1624   -4.2728   -8.6201 C   0  0  0  0  0  0  0  0  0  0  0  0
   53.9799   -4.0793   -9.9359 N   0  0  0  0  0  0  0  0  0  0  0  0
   54.4754   -2.8798  -10.2851 C   0  0  0  0  0  0  0  0  0  0  0  0
   53.7623   -5.4507   -7.8649 C   0  0  0  0  0  0  0  0  0  0  0  0
   54.5587   -6.0633   -6.9224 C   0  0  0  0  0  0  0  0  0  0  0  0
   54.1483   -7.1787   -6.2210 C   0  0  0  0  0  0  0  0  0  0  0  0
   52.9048   -7.7329   -6.4400 C   0  0  0  0  0  0  0  0  0  0  0  0
   52.0761   -7.1429   -7.3814 C   0  0  0  0  0  0  0  0  0  0  0  0
   50.4773   -7.8120   -7.6986 Cl  0  0  0  0  0  0  0  0  0  0  0  0
   52.5059   -6.0302   -8.0700 C   0  0  0  0  0  0  0  0  0  0  0  0
 20 21  1  0  0  0
 21 22  1  0  0  0
 22 23  1  0  0  0
 23 26  1  0  0  0
 26 27  2  0  0  0
 27 28  1  0  0  0
 28 29  2  0  0  0
 29 30  1  0  0  0
 30 31  1  0  0  0
 30 32  2  0  0  0
 23 24  2  0  0  0
 24 25  1  0  0  0
 25 19  1  0  0  0
 19 18  1  0  0  0
 18  1  1  0  0  0
  1  2  1  0  0  0
  2  3  2  0  0  0
  3  4  1  0  0  0
  4  5  2  0  0  0
  5  8  1  0  0  0
  8  9  1  0  0  0
  9 14  1  0  0  0
 14 15  2  0  0  0
 14 16  1  0  0  0
  9 10  1  0  0  0
 10 11  1  0  0  0
 11 12  1  0  0  0
 12 13  1  0  0  0
  5  6  1  0  0  0
  6  7  2  0  0  0
 25 21  2  0  0  0
  7  2  1  0  0  0
 32 26  1  0  0  0
 13  9  1  0  0  0
 16 17  1  0  0  0
M  END
> <minimizedAffinity>
24.01935

> <CNNscore>
0.2709846497

> <CNNaffinity>
5.1048359871

> <CNN_VS>
1.3833321333

> <CNNaffinity_variance>
0.3532714844

$$$$
[H]OC(=O)C1(C([H])([H])c2c([H])nc(OC([H])([H])C([H])([H])c3nc(-c4c([H])c([H])c([H])c(Cl)c4[H])oc3C([H])([H])[H])c([H])c2[H])OC([H])([H])C([H])([H])C1([H])[H]


 32 35  0  0  0  0  0  0  0  0999 V2000
   50.0953   -2.2470   -7.0541 O   0  0  0  0  0  0  0  0  0  0  0  0
   51.2115   -2.9680   -7.4413 C   0  0  0  0  0  0  0  0  0  0  0  0
   51.5092   -4.1726   -6.7829 C   0  0  0  0  0  0  0  0  0  0  0  0
   52.6170   -4.9131   -7.1486 C   0  0  0  0  0  0  0  0  0  0  0  0
   53.4620   -4.5043   -8.1600 C   0  0  0  0  0  0  0  0  0  0  0  0
   53.1287   -3.3248   -8.7689 C   0  0  0  0  0  0  0  0  0  0  0  0
   52.0526   -2.6124   -8.4087 N   0  0  0  0  0  0  0  0  0  0  0  0
   54.6320   -5.2923   -8.5468 C   0  0  0  0  0  0  0  0  0  0  0  0
   55.9669   -4.6626   -8.3867 C   0  0  0  0  0  0  0  0  0  0  0  0
   55.9325   -3.6014   -7.2970 C   0  0  0  0  0  0  0  0  0  0  0  0
   55.9210   -4.4835   -6.0641 C   0  0  0  0  0  0  0  0  0  0  0  0
   56.6673   -5.6857   -6.5292 C   0  0  0  0  0  0  0  0  0  0  0  0
   56.8461   -5.6410   -7.8888 O   0  0  0  0  0  0  0  0  0  0  0  0
   56.5806   -4.1335   -9.6223 C   0  0  0  0  0  0  0  0  0  0  0  0
   57.7870   -4.4219   -9.9409 O   0  0  0  0  0  0  0  0  0  0  0  0
   55.9386   -3.3020  -10.5251 O   0  0  0  0  0  0  0  0  0  0  0  0
   56.0524   -3.5072  -11.5078 H   0  0  0  0  0  0  0  0  0  0  0  0
   48.8904   -2.7602   -6.5747 C   0  0  0  0  0  0  0  0  0  0  0  0
   48.7003   -2.3199   -5.1305 C   0  0  0  0  0  0  0  0  0  0  0  0
   46.6546   -3.9805   -3.3926 C   0  0  0  0  0  0  0  0  0  0  0  0
   48.1160   -4.2206   -3.5197 C   0  0  0  0  0  0  0  0  0  0  0  0
   48.8026   -5.1581   -2.9316 O   0  0  0  0  0  0  0  0  0  0  0  0
   50.0643   -5.0977   -3.2520 C   0  0  0  0  0  0  0  0  0  0  0  0
   50.2018   -4.0626   -4.0955 N   0  0  0  0  0  0  0  0  0  0  0  0
   49.0052   -3.4830   -4.2920 C   0  0  0  0  0  0  0  0  0  0  0  0
   51.1309   -5.9748   -2.7928 C   0  0  0  0  0  0  0  0  0  0  0  0
   52.4128   -5.9507   -3.2969 C   0  0  0  0  0  0  0  0  0  0  0  0
   53.4031   -6.7951   -2.8376 C   0  0  0  0  0  0  0  0  0  0  0  0
   53.1438   -7.7112   -1.8401 C   0  0  0  0  0  0  0  0  0  0  0  0
   51.8646   -7.7638   -1.3090 C   0  0  0  0  0  0  0  0  0  0  0  0
   51.4815   -8.9162   -0.0324 Cl  0  0  0  0  0  0  0  0  0  0  0  0
   50.8915   -6.9117   -1.7823 C   0  0  0  0  0  0  0  0  0  0  0  0
 20 21  1  0  0  0
 21 22  1  0  0  0
 22 23  1  0  0  0
 23 26  1  0  0  0
 26 27  2  0  0  0
 27 28  1  0  0  0
 28 29  2  0  0  0
 29 30  1  0  0  0
 30 31  1  0  0  0
 30 32  2  0  0  0
 23 24  2  0  0  0
 24 25  1  0  0  0
 25 19  1  0  0  0
 19 18  1  0  0  0
 18  1  1  0  0  0
  1  2  1  0  0  0
  2  3  2  0  0  0
  3  4  1  0  0  0
  4  5  2  0  0  0
  5  8  1  0  0  0
  8  9  1  0  0  0
  9 14  1  0  0  0
 14 15  2  0  0  0
 14 16  1  0  0  0
  9 10  1  0  0  0
 10 11  1  0  0  0
 11 12  1  0  0  0
 12 13  1  0  0  0
  5  6  1  0  0  0
  6  7  2  0  0  0
 25 21  2  0  0  0
  7  2  1  0  0  0
 32 26  1  0  0  0
 13  9  1  0  0  0
 16 17  1  0  0  0
M  END
> <minimizedAffinity>
-8.47581

> <CNNscore>
0.2687128782

> <CNNaffinity>
6.7784066200

> <CNN_VS>
1.8214451075

> <CNNaffinity_variance>
0.3383456171

$$$$
[H]OC(=O)C1(C([H])([H])c2c([H])nc(OC([H])([H])C([H])([H])c3nc(-c4c([H])c([H])c([H])c(Cl)c4[H])oc3C([H])([H])[H])c([H])c2[H])OC([H])([H])C([H])([H])C1([H])[H]


 32 35  0  0  0  0  0  0  0  0999 V2000
   52.6470   -6.3475   -4.8914 O   0  0  0  0  0  0  0  0  0  0  0  0
   53.5995   -6.4025   -3.8888 C   0  0  0  0  0  0  0  0  0  0  0  0
   54.7107   -5.5458   -3.9541 C   0  0  0  0  0  0  0  0  0  0  0  0
   55.6772   -5.5789   -2.9671 C   0  0  0  0  0  0  0  0  0  0  0  0
   55.5899   -6.4424   -1.8942 C   0  0  0  0  0  0  0  0  0  0  0  0
   54.4896   -7.2560   -1.8775 C   0  0  0  0  0  0  0  0  0  0  0  0
   53.5565   -7.2178   -2.8385 N   0  0  0  0  0  0  0  0  0  0  0  0
   56.6130   -6.4725   -0.8494 C   0  0  0  0  0  0  0  0  0  0  0  0
   57.9450   -7.0212   -1.2089 C   0  0  0  0  0  0  0  0  0  0  0  0
   58.5507   -7.7731   -0.0331 C   0  0  0  0  0  0  0  0  0  0  0  0
   57.7322   -9.0484   -0.0800 C   0  0  0  0  0  0  0  0  0  0  0  0
   57.4156   -9.1670   -1.5306 C   0  0  0  0  0  0  0  0  0  0  0  0
   57.7511   -8.0110   -2.1892 O   0  0  0  0  0  0  0  0  0  0  0  0
   58.9087   -6.0529   -1.7717 C   0  0  0  0  0  0  0  0  0  0  0  0
   59.0382   -4.8796   -1.2749 O   0  0  0  0  0  0  0  0  0  0  0  0
   59.7360   -6.3056   -2.8535 O   0  0  0  0  0  0  0  0  0  0  0  0
   60.6988   -6.0081   -2.7814 H   0  0  0  0  0  0  0  0  0  0  0  0
   51.3752   -5.7811   -4.8095 C   0  0  0  0  0  0  0  0  0  0  0  0
   50.8061   -5.6281   -6.2126 C   0  0  0  0  0  0  0  0  0  0  0  0
   50.5717   -2.6312   -7.1752 C   0  0  0  0  0  0  0  0  0  0  0  0
   51.7054   -3.5602   -7.4225 C   0  0  0  0  0  0  0  0  0  0  0  0
   52.7963   -3.2950   -8.0827 O   0  0  0  0  0  0  0  0  0  0  0  0
   53.5940   -4.3249   -8.1192 C   0  0  0  0  0  0  0  0  0  0  0  0
   52.9847   -5.3124   -7.4441 N   0  0  0  0  0  0  0  0  0  0  0  0
   51.7971   -4.8775   -6.9893 C   0  0  0  0  0  0  0  0  0  0  0  0
   54.8965   -4.4057   -8.7631 C   0  0  0  0  0  0  0  0  0  0  0  0
   56.0511   -4.7811   -8.1119 C   0  0  0  0  0  0  0  0  0  0  0  0
   57.2714   -4.8501   -8.7526 C   0  0  0  0  0  0  0  0  0  0  0  0
   57.3848   -4.5406  -10.0916 C   0  0  0  0  0  0  0  0  0  0  0  0
   56.2436   -4.1587  -10.7793 C   0  0  0  0  0  0  0  0  0  0  0  0
   56.3346   -3.7532  -12.4915 Cl  0  0  0  0  0  0  0  0  0  0  0  0
   55.0359   -4.0966  -10.1201 C   0  0  0  0  0  0  0  0  0  0  0  0
 20 21  1  0  0  0
 21 22  1  0  0  0
 22 23  1  0  0  0
 23 26  1  0  0  0
 26 27  2  0  0  0
 27 28  1  0  0  0
 28 29  2  0  0  0
 29 30  1  0  0  0
 30 31  1  0  0  0
 30 32  2  0  0  0
 23 24  2  0  0  0
 24 25  1  0  0  0
 25 19  1  0  0  0
 19 18  1  0  0  0
 18  1  1  0  0  0
  1  2  1  0  0  0
  2  3  2  0  0  0
  3  4  1  0  0  0
  4  5  2  0  0  0
  5  8  1  0  0  0
  8  9  1  0  0  0
  9 14  1  0  0  0
 14 15  2  0  0  0
 14 16  1  0  0  0
  9 10  1  0  0  0
 10 11  1  0  0  0
 11 12  1  0  0  0
 12 13  1  0  0  0
  5  6  1  0  0  0
  6  7  2  0  0  0
 25 21  2  0  0  0
  7  2  1  0  0  0
 32 26  1  0  0  0
 13  9  1  0  0  0
 16 17  1  0  0  0
M  END
> <minimizedAffinity>
-8.72944

> <CNNscore>
0.2640057206

> <CNNaffinity>
6.3243122101

> <CNN_VS>
1.6696546078

> <CNNaffinity_variance>
0.1550549865

$$$$
[H]OC(=O)C1(C([H])([H])c2c([H])nc(OC([H])([H])C([H])([H])c3nc(-c4c([H])c([H])c([H])c(Cl)c4[H])oc3C([H])([H])[H])c([H])c2[H])OC([H])([H])C([H])([H])C1([H])[H]


 32 35  0  0  0  0  0  0  0  0999 V2000
   57.9421   -4.7795   -9.2089 O   0  0  0  0  0  0  0  0  0  0  0  0
   59.0282   -5.6362   -9.1646 C   0  0  0  0  0  0  0  0  0  0  0  0
   59.1406   -6.6478  -10.1326 C   0  0  0  0  0  0  0  0  0  0  0  0
   60.2143   -7.5174  -10.1127 C   0  0  0  0  0  0  0  0  0  0  0  0
   61.2037   -7.4275   -9.1551 C   0  0  0  0  0  0  0  0  0  0  0  0
   61.0475   -6.4264   -8.2351 C   0  0  0  0  0  0  0  0  0  0  0  0
   60.0034   -5.5869   -8.2611 N   0  0  0  0  0  0  0  0  0  0  0  0
   62.3407   -8.3475   -9.1390 C   0  0  0  0  0  0  0  0  0  0  0  0
   63.4070   -8.1384  -10.1508 C   0  0  0  0  0  0  0  0  0  0  0  0
   64.6822   -8.8615   -9.7438 C   0  0  0  0  0  0  0  0  0  0  0  0
   64.2978  -10.2901  -10.0751 C   0  0  0  0  0  0  0  0  0  0  0  0
   63.3445  -10.1064  -11.2048 C   0  0  0  0  0  0  0  0  0  0  0  0
   63.0072   -8.7829  -11.3353 O   0  0  0  0  0  0  0  0  0  0  0  0
   63.6864   -6.7325  -10.5091 C   0  0  0  0  0  0  0  0  0  0  0  0
   64.4397   -5.9980   -9.7787 O   0  0  0  0  0  0  0  0  0  0  0  0
   63.1796   -6.0905  -11.6270 O   0  0  0  0  0  0  0  0  0  0  0  0
   63.8167   -5.5175  -12.1623 H   0  0  0  0  0  0  0  0  0  0  0  0
   56.8984   -4.7005   -8.2872 C   0  0  0  0  0  0  0  0  0  0  0  0
   55.5722   -4.7145   -9.0333 C   0  0  0  0  0  0  0  0  0  0  0  0
   55.5178   -6.6000   -6.5025 C   0  0  0  0  0  0  0  0  0  0  0  0
   54.4797   -5.6135   -6.9009 C   0  0  0  0  0  0  0  0  0  0  0  0
   53.3670   -5.3612   -6.2728 O   0  0  0  0  0  0  0  0  0  0  0  0
   52.6738   -4.4408   -6.8815 C   0  0  0  0  0  0  0  0  0  0  0  0
   53.3781   -4.0766   -7.9646 N   0  0  0  0  0  0  0  0  0  0  0  0
   54.5181   -4.7865   -8.0170 C   0  0  0  0  0  0  0  0  0  0  0  0
   51.3839   -3.9009   -6.4783 C   0  0  0  0  0  0  0  0  0  0  0  0
   50.7282   -2.8966   -7.1560 C   0  0  0  0  0  0  0  0  0  0  0  0
   49.5035   -2.4080   -6.7486 C   0  0  0  0  0  0  0  0  0  0  0  0
   48.8782   -2.9141   -5.6287 C   0  0  0  0  0  0  0  0  0  0  0  0
   49.5087   -3.9258   -4.9216 C   0  0  0  0  0  0  0  0  0  0  0  0
   48.7517   -4.6070   -3.4838 Cl  0  0  0  0  0  0  0  0  0  0  0  0
   50.7307   -4.3985   -5.3460 C   0  0  0  0  0  0  0  0  0  0  0  0
 20 21  1  0  0  0
 21 22  1  0  0  0
 22 23  1  0  0  0
 23 26  1  0  0  0
 26 27  2  0  0  0
 27 28  1  0  0  0
 28 29  2  0  0  0
 29 30  1  0  0  0
 30 31  1  0  0  0
 30 32  2  0  0  0
 23 24  2  0  0  0
 24 25  1  0  0  0
 25 19  1  0  0  0
 19 18  1  0  0  0
 18  1  1  0  0  0
  1  2  1  0  0  0
  2  3  2  0  0  0
  3  4  1  0  0  0
  4  5  2  0  0  0
  5  8  1  0  0  0
  8  9  1  0  0  0
  9 14  1  0  0  0
 14 15  2  0  0  0
 14 16  1  0  0  0
  9 10  1  0  0  0
 10 11  1  0  0  0
 11 12  1  0  0  0
 12 13  1  0  0  0
  5  6  1  0  0  0
  6  7  2  0  0  0
 25 21  2  0  0  0
  7  2  1  0  0  0
 32 26  1  0  0  0
 13  9  1  0  0  0
 16 17  1  0  0  0
M  END
> <minimizedAffinity>
-7.08339

> <CNNscore>
0.2568035722

> <CNNaffinity>
5.7672581673

> <CNN_VS>
1.4810525179

> <CNNaffinity_variance>
0.4646395147

$$$$
[H]OC(=O)C([H])([H])c1c([H])c([H])c(Oc2c([H])c([H])c(C(=O)N([H])C([H])(C([H])([H])[H])C([H])([H])[H])c([H])c2N([H])S(=O)(=O)c2c([H])c([H])c(Cl)c([H])c2Cl)c(OC([H])([H])[H])c1[H]


 40 42  0  0  0  0  0  0  0  0999 V2000
   55.9939   -4.9967   -8.0792 C   0  0  0  0  0  0  0  0  0  0  0  0
   56.7636   -5.8409   -7.3261 C   0  0  0  0  0  0  0  0  0  0  0  0
   56.8091   -5.7472   -5.9488 C   0  0  0  0  0  0  0  0  0  0  0  0
   56.0680   -4.7869   -5.3085 C   0  0  0  0  0  0  0  0  0  0  0  0
   55.2965   -3.9414   -6.0778 C   0  0  0  0  0  0  0  0  0  0  0  0
   55.2238   -4.0014   -7.4457 C   0  0  0  0  0  0  0  0  0  0  0  0
   56.0847   -4.6571   -3.8461 C   0  0  0  0  0  0  0  0  0  0  0  0
   56.7376   -3.6813   -3.3623 O   0  0  0  0  0  0  0  0  0  0  0  0
   55.4120   -5.5657   -3.0210 N   0  0  0  0  0  0  0  0  0  0  0  0
   54.8764   -6.3589   -3.3895 H   0  0  0  0  0  0  0  0  0  0  0  0
   55.4636   -5.3883   -1.5780 C   0  0  0  0  0  0  0  0  0  0  0  0
   54.0262   -5.2144   -1.1188 C   0  0  0  0  0  0  0  0  0  0  0  0
   56.1218   -6.5680   -0.9296 C   0  0  0  0  0  0  0  0  0  0  0  0
   54.4452   -3.1309   -8.2558 N   0  0  0  0  0  0  0  0  0  0  0  0
   54.8119   -2.1601   -8.4595 H   0  0  0  0  0  0  0  0  0  0  0  0
   52.9424   -3.6695   -8.8776 S   0  0  0  0  0  0  0  0  0  0  0  0
   52.5483   -2.9191  -10.1449 O   0  0  0  0  0  0  0  0  0  0  0  0
   53.0924   -5.1529   -9.2374 O   0  0  0  0  0  0  0  0  0  0  0  0
   51.6991   -3.5235   -7.6604 C   0  0  0  0  0  0  0  0  0  0  0  0
   50.8859   -2.4273   -7.6312 C   0  0  0  0  0  0  0  0  0  0  0  0
   49.9281   -2.3718   -6.6092 C   0  0  0  0  0  0  0  0  0  0  0  0
   49.7939   -3.3594   -5.6696 C   0  0  0  0  0  0  0  0  0  0  0  0
   48.5945   -3.2680   -4.4082 Cl  0  0  0  0  0  0  0  0  0  0  0  0
   50.6387   -4.4385   -5.7466 C   0  0  0  0  0  0  0  0  0  0  0  0
   51.5901   -4.5486   -6.7181 C   0  0  0  0  0  0  0  0  0  0  0  0
   52.6803   -5.9376   -6.8205 Cl  0  0  0  0  0  0  0  0  0  0  0  0
   55.9457   -5.0912   -9.4560 O   0  0  0  0  0  0  0  0  0  0  0  0
   58.2018   -5.2127  -10.3352 C   0  0  0  0  0  0  0  0  0  0  0  0
   59.1206   -4.7582  -11.2680 C   0  0  0  0  0  0  0  0  0  0  0  0
   58.8188   -3.8013  -12.2232 C   0  0  0  0  0  0  0  0  0  0  0  0
   57.5371   -3.2906  -12.2271 C   0  0  0  0  0  0  0  0  0  0  0  0
   56.6076   -3.7279  -11.3081 C   0  0  0  0  0  0  0  0  0  0  0  0
   56.9210   -4.6980  -10.3427 C   0  0  0  0  0  0  0  0  0  0  0  0
   59.9220   -6.2833   -8.9974 C   0  0  0  0  0  0  0  0  0  0  0  0
   58.5627   -6.1828   -9.3968 O   0  0  0  0  0  0  0  0  0  0  0  0
   59.8158   -3.3224  -13.2194 C   0  0  0  0  0  0  0  0  0  0  0  0
   59.1651   -3.1528  -14.5428 C   0  0  0  0  0  0  0  0  0  0  0  0
   58.2562   -3.8833  -14.9843 O   0  0  0  0  0  0  0  0  0  0  0  0
   59.6218   -2.0886  -15.3350 O   0  0  0  0  0  0  0  0  0  0  0  0
   59.5673   -1.1523  -14.9652 H   0  0  0  0  0  0  0  0  0  0  0  0
 34 35  1  0  0  0
 35 28  1  0  0  0
 28 29  2  0  0  0
 29 30  1  0  0  0
 30 36  1  0  0  0
 36 37  1  0  0  0
 37 38  2  0  0  0
 37 39  1  0  0  0
 30 31  2  0  0  0
 31 32  1  0  0  0
 32 33  2  0  0  0
 33 27  1  0  0  0
 27  1  1  0  0  0
  1  2  2  0  0  0
  2  3  1  0  0  0
  3  4  2  0  0  0
  4  7  1  0  0  0
  7  8  2  0  0  0
  7  9  1  0  0  0
  9 11  1  0  0  0
 11 12  1  0  0  0
 11 13  1  0  0  0
  4  5  1  0  0  0
  5  6  2  0  0  0
  6 14  1  0  0  0
 14 16  1  0  0  0
 16 17  2  0  0  0
 16 18  2  0  0  0
 16 19  1  0  0  0
 19 20  2  0  0  0
 20 21  1  0  0  0
 21 22  2  0  0  0
 22 23  1  0  0  0
 22 24  1  0  0  0
 24 25  2  0  0  0
 25 26  1  0  0  0
 33 28  1  0  0  0
  6  1  1  0  0  0
 25 19  1  0  0  0
 39 40  1  0  0  0
  9 10  1  0  0  0
 14 15  1  0  0  0
M  END
> <minimizedAffinity>
-7.67875

> <CNNscore>
0.8035463095

> <CNNaffinity>
7.8140058517

> <CNN_VS>
6.2789154053

> <CNNaffinity_variance>
0.1128130555

$$$$
[H]OC(=O)C([H])([H])c1c([H])c([H])c(Oc2c([H])c([H])c(C(=O)N([H])C([H])(C([H])([H])[H])C([H])([H])[H])c([H])c2N([H])S(=O)(=O)c2c([H])c([H])c(Cl)c([H])c2Cl)c(OC([H])([H])[H])c1[H]


 40 42  0  0  0  0  0  0  0  0999 V2000
   56.6234   -4.4229   -7.5965 C   0  0  0  0  0  0  0  0  0  0  0  0
   57.7837   -4.9586   -8.0854 C   0  0  0  0  0  0  0  0  0  0  0  0
   58.0441   -5.0116   -9.4408 C   0  0  0  0  0  0  0  0  0  0  0  0
   57.1231   -4.5178  -10.3292 C   0  0  0  0  0  0  0  0  0  0  0  0
   55.9572   -3.9808   -9.8251 C   0  0  0  0  0  0  0  0  0  0  0  0
   55.6609   -3.9094   -8.4882 C   0  0  0  0  0  0  0  0  0  0  0  0
   57.3636   -4.5507  -11.7773 C   0  0  0  0  0  0  0  0  0  0  0  0
   58.5546   -4.7719  -12.1581 O   0  0  0  0  0  0  0  0  0  0  0  0
   56.3289   -4.3483  -12.6977 N   0  0  0  0  0  0  0  0  0  0  0  0
   55.3596   -4.1711  -12.4134 H   0  0  0  0  0  0  0  0  0  0  0  0
   56.6255   -4.3912  -14.1213 C   0  0  0  0  0  0  0  0  0  0  0  0
   55.9846   -5.6621  -14.6517 C   0  0  0  0  0  0  0  0  0  0  0  0
   56.0942   -3.1671  -14.8030 C   0  0  0  0  0  0  0  0  0  0  0  0
   54.4598   -3.3720   -7.9509 N   0  0  0  0  0  0  0  0  0  0  0  0
   54.5095   -2.8015   -7.0618 H   0  0  0  0  0  0  0  0  0  0  0  0
   52.9713   -3.6594   -8.7487 S   0  0  0  0  0  0  0  0  0  0  0  0
   52.8283   -2.8147  -10.0099 O   0  0  0  0  0  0  0  0  0  0  0  0
   52.9443   -5.1351   -9.1662 O   0  0  0  0  0  0  0  0  0  0  0  0
   51.6377   -3.3736   -7.6585 C   0  0  0  0  0  0  0  0  0  0  0  0
   50.8704   -2.2514   -7.7845 C   0  0  0  0  0  0  0  0  0  0  0  0
   49.8337   -2.0812   -6.8564 C   0  0  0  0  0  0  0  0  0  0  0  0
   49.5813   -2.9848   -5.8584 C   0  0  0  0  0  0  0  0  0  0  0  0
   48.2856   -2.7512   -4.7162 Cl  0  0  0  0  0  0  0  0  0  0  0  0
   50.3848   -4.0948   -5.7786 C   0  0  0  0  0  0  0  0  0  0  0  0
   51.4086   -4.3152   -6.6528 C   0  0  0  0  0  0  0  0  0  0  0  0
   52.4458   -5.7444   -6.5529 Cl  0  0  0  0  0  0  0  0  0  0  0  0
   56.3632   -4.3670   -6.2415 O   0  0  0  0  0  0  0  0  0  0  0  0
   55.8840   -5.3209   -4.0647 C   0  0  0  0  0  0  0  0  0  0  0  0
   55.4405   -6.4145   -3.3379 C   0  0  0  0  0  0  0  0  0  0  0  0
   55.0412   -7.6031   -3.9272 C   0  0  0  0  0  0  0  0  0  0  0  0
   55.0962   -7.6788   -5.3037 C   0  0  0  0  0  0  0  0  0  0  0  0
   55.5345   -6.6035   -6.0460 C   0  0  0  0  0  0  0  0  0  0  0  0
   55.9379   -5.4021   -5.4417 C   0  0  0  0  0  0  0  0  0  0  0  0
   57.0388   -4.2380   -2.2239 C   0  0  0  0  0  0  0  0  0  0  0  0
   56.2711   -4.1460   -3.4154 O   0  0  0  0  0  0  0  0  0  0  0  0
   54.5667   -8.7699   -3.1340 C   0  0  0  0  0  0  0  0  0  0  0  0
   53.6167   -8.3160   -2.0878 C   0  0  0  0  0  0  0  0  0  0  0  0
   52.4807   -7.8548   -2.3141 O   0  0  0  0  0  0  0  0  0  0  0  0
   54.0500   -8.4230   -0.7574 O   0  0  0  0  0  0  0  0  0  0  0  0
   54.3137   -9.3304   -0.4063 H   0  0  0  0  0  0  0  0  0  0  0  0
 34 35  1  0  0  0
 35 28  1  0  0  0
 28 29  2  0  0  0
 29 30  1  0  0  0
 30 36  1  0  0  0
 36 37  1  0  0  0
 37 38  2  0  0  0
 37 39  1  0  0  0
 30 31  2  0  0  0
 31 32  1  0  0  0
 32 33  2  0  0  0
 33 27  1  0  0  0
 27  1  1  0  0  0
  1  2  2  0  0  0
  2  3  1  0  0  0
  3  4  2  0  0  0
  4  7  1  0  0  0
  7  8  2  0  0  0
  7  9  1  0  0  0
  9 11  1  0  0  0
 11 12  1  0  0  0
 11 13  1  0  0  0
  4  5  1  0  0  0
  5  6  2  0  0  0
  6 14  1  0  0  0
 14 16  1  0  0  0
 16 17  2  0  0  0
 16 18  2  0  0  0
 16 19  1  0  0  0
 19 20  2  0  0  0
 20 21  1  0  0  0
 21 22  2  0  0  0
 22 23  1  0  0  0
 22 24  1  0  0  0
 24 25  2  0  0  0
 25 26  1  0  0  0
 33 28  1  0  0  0
  6  1  1  0  0  0
 25 19  1  0  0  0
 39 40  1  0  0  0
  9 10  1  0  0  0
 14 15  1  0  0  0
M  END
> <minimizedAffinity>
-9.98199

> <CNNscore>
0.7877101302

> <CNNaffinity>
7.8295440674

> <CNN_VS>
6.1674113274

> <CNNaffinity_variance>
0.1509927809

$$$$
[H]OC(=O)C([H])([H])c1c([H])c([H])c(Oc2c([H])c([H])c(C(=O)N([H])C([H])(C([H])([H])[H])C([H])([H])[H])c([H])c2N([H])S(=O)(=O)c2c([H])c([H])c(Cl)c([H])c2Cl)c(OC([H])([H])[H])c1[H]


 40 42  0  0  0  0  0  0  0  0999 V2000
   56.4314   -4.6478   -9.9073 C   0  0  0  0  0  0  0  0  0  0  0  0
   57.6199   -4.9978   -9.3267 C   0  0  0  0  0  0  0  0  0  0  0  0
   57.7075   -5.3110   -7.9842 C   0  0  0  0  0  0  0  0  0  0  0  0
   56.5807   -5.2734   -7.2031 C   0  0  0  0  0  0  0  0  0  0  0  0
   55.3886   -4.9188   -7.7990 C   0  0  0  0  0  0  0  0  0  0  0  0
   55.2595   -4.6011   -9.1266 C   0  0  0  0  0  0  0  0  0  0  0  0
   56.6301   -5.6039   -5.7734 C   0  0  0  0  0  0  0  0  0  0  0  0
   56.0966   -4.7755   -4.9723 O   0  0  0  0  0  0  0  0  0  0  0  0
   57.2366   -6.7779   -5.3121 N   0  0  0  0  0  0  0  0  0  0  0  0
   57.6708   -7.4624   -5.9405 H   0  0  0  0  0  0  0  0  0  0  0  0
   57.2567   -7.0538   -3.8839 C   0  0  0  0  0  0  0  0  0  0  0  0
   56.0777   -7.9717   -3.6108 C   0  0  0  0  0  0  0  0  0  0  0  0
   58.5598   -7.6807   -3.4910 C   0  0  0  0  0  0  0  0  0  0  0  0
   54.0428   -4.2208   -9.7552 N   0  0  0  0  0  0  0  0  0  0  0  0
   53.7779   -4.6773  -10.6716 H   0  0  0  0  0  0  0  0  0  0  0  0
   53.0419   -3.0403   -9.0204 S   0  0  0  0  0  0  0  0  0  0  0  0
   53.8382   -1.8236   -8.5620 O   0  0  0  0  0  0  0  0  0  0  0  0
   52.0285   -2.5700  -10.0713 O   0  0  0  0  0  0  0  0  0  0  0  0
   52.1619   -3.7422   -7.6856 C   0  0  0  0  0  0  0  0  0  0  0  0
   52.5204   -4.9611   -7.1861 C   0  0  0  0  0  0  0  0  0  0  0  0
   51.7503   -5.4684   -6.1304 C   0  0  0  0  0  0  0  0  0  0  0  0
   50.6810   -4.7919   -5.6058 C   0  0  0  0  0  0  0  0  0  0  0  0
   49.7386   -5.4435   -4.2923 Cl  0  0  0  0  0  0  0  0  0  0  0  0
   50.3652   -3.5708   -6.1473 C   0  0  0  0  0  0  0  0  0  0  0  0
   51.0774   -3.0254   -7.1751 C   0  0  0  0  0  0  0  0  0  0  0  0
   50.6732   -1.4522   -7.8751 Cl  0  0  0  0  0  0  0  0  0  0  0  0
   56.3422   -4.3370  -11.2498 O   0  0  0  0  0  0  0  0  0  0  0  0
   57.2131   -3.7011  -13.4212 C   0  0  0  0  0  0  0  0  0  0  0  0
   58.3262   -3.4790  -14.2166 C   0  0  0  0  0  0  0  0  0  0  0  0
   59.6252   -3.6331  -13.7602 C   0  0  0  0  0  0  0  0  0  0  0  0
   59.7946   -4.0269  -12.4488 C   0  0  0  0  0  0  0  0  0  0  0  0
   58.7017   -4.2537  -11.6403 C   0  0  0  0  0  0  0  0  0  0  0  0
   57.3880   -4.0958  -12.1100 C   0  0  0  0  0  0  0  0  0  0  0  0
   55.7384   -3.5430  -15.3435 C   0  0  0  0  0  0  0  0  0  0  0  0
   55.9260   -3.5265  -13.9356 O   0  0  0  0  0  0  0  0  0  0  0  0
   60.8117   -3.3909  -14.6258 C   0  0  0  0  0  0  0  0  0  0  0  0
   61.7515   -2.4648  -13.9458 C   0  0  0  0  0  0  0  0  0  0  0  0
   62.9494   -2.7178  -13.7101 O   0  0  0  0  0  0  0  0  0  0  0  0
   61.2324   -1.2228  -13.5496 O   0  0  0  0  0  0  0  0  0  0  0  0
   60.8320   -0.6200  -14.2515 H   0  0  0  0  0  0  0  0  0  0  0  0
 34 35  1  0  0  0
 35 28  1  0  0  0
 28 29  2  0  0  0
 29 30  1  0  0  0
 30 36  1  0  0  0
 36 37  1  0  0  0
 37 38  2  0  0  0
 37 39  1  0  0  0
 30 31  2  0  0  0
 31 32  1  0  0  0
 32 33  2  0  0  0
 33 27  1  0  0  0
 27  1  1  0  0  0
  1  2  2  0  0  0
  2  3  1  0  0  0
  3  4  2  0  0  0
  4  7  1  0  0  0
  7  8  2  0  0  0
  7  9  1  0  0  0
  9 11  1  0  0  0
 11 12  1  0  0  0
 11 13  1  0  0  0
  4  5  1  0  0  0
  5  6  2  0  0  0
  6 14  1  0  0  0
 14 16  1  0  0  0
 16 17  2  0  0  0
 16 18  2  0  0  0
 16 19  1  0  0  0
 19 20  2  0  0  0
 20 21  1  0  0  0
 21 22  2  0  0  0
 22 23  1  0  0  0
 22 24  1  0  0  0
 24 25  2  0  0  0
 25 26  1  0  0  0
 33 28  1  0  0  0
  6  1  1  0  0  0
 25 19  1  0  0  0
 39 40  1  0  0  0
  9 10  1  0  0  0
 14 15  1  0  0  0
M  END
> <minimizedAffinity>
-8.50303

> <CNNscore>
0.7226836085

> <CNNaffinity>
7.4462828636

> <CNN_VS>
5.3813066483

> <CNNaffinity_variance>
0.1670433730

$$$$
[H]OC(=O)C([H])([H])c1c([H])c([H])c(Oc2c([H])c([H])c(C(=O)N([H])C([H])(C([H])([H])[H])C([H])([H])[H])c([H])c2N([H])S(=O)(=O)c2c([H])c([H])c(Cl)c([H])c2Cl)c(OC([H])([H])[H])c1[H]


 40 42  0  0  0  0  0  0  0  0999 V2000
   55.8928   -4.6556   -6.6647 C   0  0  0  0  0  0  0  0  0  0  0  0
   57.0187   -5.4146   -6.8341 C   0  0  0  0  0  0  0  0  0  0  0  0
   57.6432   -5.5227   -8.0614 C   0  0  0  0  0  0  0  0  0  0  0  0
   57.1306   -4.8569   -9.1454 C   0  0  0  0  0  0  0  0  0  0  0  0
   55.9953   -4.0955   -8.9629 C   0  0  0  0  0  0  0  0  0  0  0  0
   55.3460   -3.9622   -7.7625 C   0  0  0  0  0  0  0  0  0  0  0  0
   57.7670   -4.9416  -10.4658 C   0  0  0  0  0  0  0  0  0  0  0  0
   58.7208   -5.7703  -10.5930 O   0  0  0  0  0  0  0  0  0  0  0  0
   57.3433   -4.1468  -11.5370 N   0  0  0  0  0  0  0  0  0  0  0  0
   56.5738   -3.4734  -11.4584 H   0  0  0  0  0  0  0  0  0  0  0  0
   58.0114   -4.2725  -12.8232 C   0  0  0  0  0  0  0  0  0  0  0  0
   57.0335   -3.7540  -13.8635 C   0  0  0  0  0  0  0  0  0  0  0  0
   59.2947   -3.4989  -12.8234 C   0  0  0  0  0  0  0  0  0  0  0  0
   54.1683   -3.1932   -7.5582 N   0  0  0  0  0  0  0  0  0  0  0  0
   54.2058   -2.3694   -6.8962 H   0  0  0  0  0  0  0  0  0  0  0  0
   52.7265   -3.6159   -8.3814 S   0  0  0  0  0  0  0  0  0  0  0  0
   52.5718   -2.8490   -9.6900 O   0  0  0  0  0  0  0  0  0  0  0  0
   52.8043   -5.1101   -8.7190 O   0  0  0  0  0  0  0  0  0  0  0  0
   51.3438   -3.3588   -7.3467 C   0  0  0  0  0  0  0  0  0  0  0  0
   50.5362   -2.2733   -7.5293 C   0  0  0  0  0  0  0  0  0  0  0  0
   49.4606   -2.1233   -6.6431 C   0  0  0  0  0  0  0  0  0  0  0  0
   49.2094   -3.0114   -5.6309 C   0  0  0  0  0  0  0  0  0  0  0  0
   47.8647   -2.8036   -4.5415 Cl  0  0  0  0  0  0  0  0  0  0  0  0
   50.0543   -4.0844   -5.4934 C   0  0  0  0  0  0  0  0  0  0  0  0
   51.1172   -4.2836   -6.3249 C   0  0  0  0  0  0  0  0  0  0  0  0
   52.2078   -5.6651   -6.1506 Cl  0  0  0  0  0  0  0  0  0  0  0  0
   55.2691   -4.5447   -5.4377 O   0  0  0  0  0  0  0  0  0  0  0  0
   55.4565   -6.1663   -3.6452 C   0  0  0  0  0  0  0  0  0  0  0  0
   56.0062   -6.4937   -2.4157 C   0  0  0  0  0  0  0  0  0  0  0  0
   56.8644   -5.6551   -1.7231 C   0  0  0  0  0  0  0  0  0  0  0  0
   57.1721   -4.4421   -2.3039 C   0  0  0  0  0  0  0  0  0  0  0  0
   56.6364   -4.0960   -3.5257 C   0  0  0  0  0  0  0  0  0  0  0  0
   55.7670   -4.9510   -4.2216 C   0  0  0  0  0  0  0  0  0  0  0  0
   55.1560   -8.0890   -5.0971 C   0  0  0  0  0  0  0  0  0  0  0  0
   54.5988   -7.0544   -4.2992 O   0  0  0  0  0  0  0  0  0  0  0  0
   57.4476   -6.0198   -0.4031 C   0  0  0  0  0  0  0  0  0  0  0  0
   58.8590   -6.4456   -0.5755 C   0  0  0  0  0  0  0  0  0  0  0  0
   59.8482   -5.7062   -0.4043 O   0  0  0  0  0  0  0  0  0  0  0  0
   59.0701   -7.7789   -0.9587 O   0  0  0  0  0  0  0  0  0  0  0  0
   58.7112   -8.5139   -0.3694 H   0  0  0  0  0  0  0  0  0  0  0  0
 34 35  1  0  0  0
 35 28  1  0  0  0
 28 29  2  0  0  0
 29 30  1  0  0  0
 30 36  1  0  0  0
 36 37  1  0  0  0
 37 38  2  0  0  0
 37 39  1  0  0  0
 30 31  2  0  0  0
 31 32  1  0  0  0
 32 33  2  0  0  0
 33 27  1  0  0  0
 27  1  1  0  0  0
  1  2  2  0  0  0
  2  3  1  0  0  0
  3  4  2  0  0  0
  4  7  1  0  0  0
  7  8  2  0  0  0
  7  9  1  0  0  0
  9 11  1  0  0  0
 11 12  1  0  0  0
 11 13  1  0  0  0
  4  5  1  0  0  0
  5  6  2  0  0  0
  6 14  1  0  0  0
 14 16  1  0  0  0
 16 17  2  0  0  0
 16 18  2  0  0  0
 16 19  1  0  0  0
 19 20  2  0  0  0
 20 21  1  0  0  0
 21 22  2  0  0  0
 22 23  1  0  0  0
 22 24  1  0  0  0
 24 25  2  0  0  0
 25 26  1  0  0  0
 33 28  1  0  0  0
  6  1  1  0  0  0
 25 19  1  0  0  0
 39 40  1  0  0  0
  9 10  1  0  0  0
 14 15  1  0  0  0
M  END
> <minimizedAffinity>
-8.47385

> <CNNscore>
0.7196453214

> <CNNaffinity>
7.6477828026

> <CNN_VS>
5.5036911964

> <CNNaffinity_variance>
0.1693588197

$$$$
[H]OC(=O)C([H])([H])c1c([H])c([H])c(Oc2c([H])c([H])c(C(=O)N([H])C([H])(C([H])([H])[H])C([H])([H])[H])c([H])c2N([H])S(=O)(=O)c2c([H])c([H])c(Cl)c([H])c2Cl)c(OC([H])([H])[H])c1[H]


 40 42  0  0  0  0  0  0  0  0999 V2000
   54.7725   -4.1001   -9.1566 C   0  0  0  0  0  0  0  0  0  0  0  0
   55.2519   -4.1404  -10.4375 C   0  0  0  0  0  0  0  0  0  0  0  0
   56.5228   -4.6001  -10.7227 C   0  0  0  0  0  0  0  0  0  0  0  0
   57.3343   -5.0296   -9.7037 C   0  0  0  0  0  0  0  0  0  0  0  0
   56.8406   -4.9839   -8.4168 C   0  0  0  0  0  0  0  0  0  0  0  0
   55.5863   -4.5352   -8.0920 C   0  0  0  0  0  0  0  0  0  0  0  0
   58.6897   -5.5300   -9.9649 C   0  0  0  0  0  0  0  0  0  0  0  0
   59.2343   -5.1746  -11.0556 O   0  0  0  0  0  0  0  0  0  0  0  0
   59.3534   -6.3605   -9.0546 N   0  0  0  0  0  0  0  0  0  0  0  0
   58.9346   -6.6578   -8.1669 H   0  0  0  0  0  0  0  0  0  0  0  0
   60.6956   -6.8272   -9.3662 C   0  0  0  0  0  0  0  0  0  0  0  0
   61.5377   -6.5571   -8.1312 C   0  0  0  0  0  0  0  0  0  0  0  0
   60.6731   -8.2822   -9.7239 C   0  0  0  0  0  0  0  0  0  0  0  0
   55.0653   -4.4683   -6.7713 N   0  0  0  0  0  0  0  0  0  0  0  0
   54.0615   -4.1653   -6.6340 H   0  0  0  0  0  0  0  0  0  0  0  0
   56.0676   -4.8757   -5.4430 S   0  0  0  0  0  0  0  0  0  0  0  0
   57.2165   -5.7892   -5.8553 O   0  0  0  0  0  0  0  0  0  0  0  0
   56.6730   -3.5750   -4.9007 O   0  0  0  0  0  0  0  0  0  0  0  0
   55.1187   -5.6096   -4.1743 C   0  0  0  0  0  0  0  0  0  0  0  0
   54.8563   -4.9243   -3.0231 C   0  0  0  0  0  0  0  0  0  0  0  0
   54.1085   -5.5900   -2.0419 C   0  0  0  0  0  0  0  0  0  0  0  0
   53.6504   -6.8705   -2.2059 C   0  0  0  0  0  0  0  0  0  0  0  0
   52.7217   -7.6771   -0.9711 Cl  0  0  0  0  0  0  0  0  0  0  0  0
   53.9444   -7.5120   -3.3832 C   0  0  0  0  0  0  0  0  0  0  0  0
   54.6676   -6.9161   -4.3746 C   0  0  0  0  0  0  0  0  0  0  0  0
   55.0481   -7.7398   -5.8928 Cl  0  0  0  0  0  0  0  0  0  0  0  0
   53.5011   -3.6431   -8.8706 O   0  0  0  0  0  0  0  0  0  0  0  0
   51.6084   -3.4021   -7.3748 C   0  0  0  0  0  0  0  0  0  0  0  0
   50.7931   -3.9821   -6.4158 C   0  0  0  0  0  0  0  0  0  0  0  0
   50.9633   -5.2802   -5.9627 C   0  0  0  0  0  0  0  0  0  0  0  0
   51.9999   -6.0111   -6.5059 C   0  0  0  0  0  0  0  0  0  0  0  0
   52.8231   -5.4539   -7.4605 C   0  0  0  0  0  0  0  0  0  0  0  0
   52.6446   -4.1373   -7.9145 C   0  0  0  0  0  0  0  0  0  0  0  0
   50.1125   -1.5002   -7.5756 C   0  0  0  0  0  0  0  0  0  0  0  0
   51.3865   -2.0885   -7.7958 O   0  0  0  0  0  0  0  0  0  0  0  0
   50.0798   -5.8907   -4.9320 C   0  0  0  0  0  0  0  0  0  0  0  0
   49.9750   -4.9877   -3.7586 C   0  0  0  0  0  0  0  0  0  0  0  0
   50.8265   -4.9024   -2.8518 O   0  0  0  0  0  0  0  0  0  0  0  0
   48.8278   -4.1829   -3.6864 O   0  0  0  0  0  0  0  0  0  0  0  0
   48.6348   -3.5470   -4.4445 H   0  0  0  0  0  0  0  0  0  0  0  0
 34 35  1  0  0  0
 35 28  1  0  0  0
 28 29  2  0  0  0
 29 30  1  0  0  0
 30 36  1  0  0  0
 36 37  1  0  0  0
 37 38  2  0  0  0
 37 39  1  0  0  0
 30 31  2  0  0  0
 31 32  1  0  0  0
 32 33  2  0  0  0
 33 27  1  0  0  0
 27  1  1  0  0  0
  1  2  2  0  0  0
  2  3  1  0  0  0
  3  4  2  0  0  0
  4  7  1  0  0  0
  7  8  2  0  0  0
  7  9  1  0  0  0
  9 11  1  0  0  0
 11 12  1  0  0  0
 11 13  1  0  0  0
  4  5  1  0  0  0
  5  6  2  0  0  0
  6 14  1  0  0  0
 14 16  1  0  0  0
 16 17  2  0  0  0
 16 18  2  0  0  0
 16 19  1  0  0  0
 19 20  2  0  0  0
 20 21  1  0  0  0
 21 22  2  0  0  0
 22 23  1  0  0  0
 22 24  1  0  0  0
 24 25  2  0  0  0
 25 26  1  0  0  0
 33 28  1  0  0  0
  6  1  1  0  0  0
 25 19  1  0  0  0
 39 40  1  0  0  0
  9 10  1  0  0  0
 14 15  1  0  0  0
M  END
> <minimizedAffinity>
-8.64678

> <CNNscore>
0.6630961895

> <CNNaffinity>
7.8327589035

> <CNN_VS>
5.1938724518

> <CNNaffinity_variance>
0.1798604727

$$$$
[H]OC(=O)C([H])([H])c1c([H])c([H])c(Oc2c([H])c([H])c(C(=O)N([H])C([H])(C([H])([H])[H])C([H])([H])[H])c([H])c2N([H])S(=O)(=O)c2c([H])c([H])c(Cl)c([H])c2Cl)c(OC([H])([H])[H])c1[H]


 40 42  0  0  0  0  0  0  0  0999 V2000
   56.0606   -4.8138   -8.4168 C   0  0  0  0  0  0  0  0  0  0  0  0
   56.8892   -5.7258   -7.8218 C   0  0  0  0  0  0  0  0  0  0  0  0
   56.8728   -5.9394   -6.4573 C   0  0  0  0  0  0  0  0  0  0  0  0
   56.0081   -5.2246   -5.6682 C   0  0  0  0  0  0  0  0  0  0  0  0
   55.1781   -4.3080   -6.2788 C   0  0  0  0  0  0  0  0  0  0  0  0
   55.1634   -4.0664   -7.6284 C   0  0  0  0  0  0  0  0  0  0  0  0
   55.9560   -5.4252   -4.2146 C   0  0  0  0  0  0  0  0  0  0  0  0
   54.8338   -5.2441   -3.6484 O   0  0  0  0  0  0  0  0  0  0  0  0
   57.0898   -5.7992   -3.4843 N   0  0  0  0  0  0  0  0  0  0  0  0
   58.0051   -5.9537   -3.9205 H   0  0  0  0  0  0  0  0  0  0  0  0
   56.9796   -5.9832   -2.0454 C   0  0  0  0  0  0  0  0  0  0  0  0
   57.9334   -7.1094   -1.6859 C   0  0  0  0  0  0  0  0  0  0  0  0
   57.3165   -4.7111   -1.3286 C   0  0  0  0  0  0  0  0  0  0  0  0
   54.3252   -3.1170   -8.2736 N   0  0  0  0  0  0  0  0  0  0  0  0
   54.6765   -2.1271   -8.3964 H   0  0  0  0  0  0  0  0  0  0  0  0
   52.7775   -3.5940   -8.8322 S   0  0  0  0  0  0  0  0  0  0  0  0
   52.2137   -2.6138   -9.8547 O   0  0  0  0  0  0  0  0  0  0  0  0
   52.9307   -4.9556   -9.5215 O   0  0  0  0  0  0  0  0  0  0  0  0
   51.6818   -3.7814   -7.4856 C   0  0  0  0  0  0  0  0  0  0  0  0
   50.8373   -2.7674   -7.1355 C   0  0  0  0  0  0  0  0  0  0  0  0
   50.0054   -2.9849   -6.0285 C   0  0  0  0  0  0  0  0  0  0  0  0
   50.0200   -4.1528   -5.3129 C   0  0  0  0  0  0  0  0  0  0  0  0
   48.9753   -4.3999   -3.9398 Cl  0  0  0  0  0  0  0  0  0  0  0  0
   50.8896   -5.1381   -5.7091 C   0  0  0  0  0  0  0  0  0  0  0  0
   51.7232   -4.9849   -6.7781 C   0  0  0  0  0  0  0  0  0  0  0  0
   52.8449   -6.2523   -7.2915 Cl  0  0  0  0  0  0  0  0  0  0  0  0
   56.0743   -4.6013   -9.7811 O   0  0  0  0  0  0  0  0  0  0  0  0
   57.1658   -3.9304  -11.8394 C   0  0  0  0  0  0  0  0  0  0  0  0
   58.3330   -3.8889  -12.5856 C   0  0  0  0  0  0  0  0  0  0  0  0
   59.5358   -4.4112  -12.1386 C   0  0  0  0  0  0  0  0  0  0  0  0
   59.5485   -4.9956  -10.8889 C   0  0  0  0  0  0  0  0  0  0  0  0
   58.3992   -5.0482  -10.1300 C   0  0  0  0  0  0  0  0  0  0  0  0
   57.1837   -4.5169  -10.5899 C   0  0  0  0  0  0  0  0  0  0  0  0
   55.7977   -3.3124  -13.7477 C   0  0  0  0  0  0  0  0  0  0  0  0
   55.9819   -3.3838  -12.3411 O   0  0  0  0  0  0  0  0  0  0  0  0
   60.7821   -4.3596  -12.9509 C   0  0  0  0  0  0  0  0  0  0  0  0
   60.6154   -3.3987  -14.0699 C   0  0  0  0  0  0  0  0  0  0  0  0
   60.1878   -3.6972  -15.2024 O   0  0  0  0  0  0  0  0  0  0  0  0
   60.9707   -2.0661  -13.8112 O   0  0  0  0  0  0  0  0  0  0  0  0
   60.5069   -1.5791  -13.0601 H   0  0  0  0  0  0  0  0  0  0  0  0
 34 35  1  0  0  0
 35 28  1  0  0  0
 28 29  2  0  0  0
 29 30  1  0  0  0
 30 36  1  0  0  0
 36 37  1  0  0  0
 37 38  2  0  0  0
 37 39  1  0  0  0
 30 31  2  0  0  0
 31 32  1  0  0  0
 32 33  2  0  0  0
 33 27  1  0  0  0
 27  1  1  0  0  0
  1  2  2  0  0  0
  2  3  1  0  0  0
  3  4  2  0  0  0
  4  7  1  0  0  0
  7  8  2  0  0  0
  7  9  1  0  0  0
  9 11  1  0  0  0
 11 12  1  0  0  0
 11 13  1  0  0  0
  4  5  1  0  0  0
  5  6  2  0  0  0
  6 14  1  0  0  0
 14 16  1  0  0  0
 16 17  2  0  0  0
 16 18  2  0  0  0
 16 19  1  0  0  0
 19 20  2  0  0  0
 20 21  1  0  0  0
 21 22  2  0  0  0
 22 23  1  0  0  0
 22 24  1  0  0  0
 24 25  2  0  0  0
 25 26  1  0  0  0
 33 28  1  0  0  0
  6  1  1  0  0  0
 25 19  1  0  0  0
 39 40  1  0  0  0
  9 10  1  0  0  0
 14 15  1  0  0  0
M  END
> <minimizedAffinity>
-6.92120

> <CNNscore>
0.6461303830

> <CNNaffinity>
7.3503847122

> <CNN_VS>
4.7493066788

> <CNNaffinity_variance>
0.1934875697

$$$$
[H]OC(=O)C([H])([H])c1c([H])c([H])c(Oc2c([H])c([H])c(C(=O)N([H])C([H])(C([H])([H])[H])C([H])([H])[H])c([H])c2N([H])S(=O)(=O)c2c([H])c([H])c(Cl)c([H])c2Cl)c(OC([H])([H])[H])c1[H]


 40 42  0  0  0  0  0  0  0  0999 V2000
   56.7513   -4.4480   -7.6312 C   0  0  0  0  0  0  0  0  0  0  0  0
   57.7586   -5.2276   -8.1312 C   0  0  0  0  0  0  0  0  0  0  0  0
   58.0154   -5.3004   -9.4864 C   0  0  0  0  0  0  0  0  0  0  0  0
   57.2475   -4.5773  -10.3631 C   0  0  0  0  0  0  0  0  0  0  0  0
   56.2350   -3.7955   -9.8478 C   0  0  0  0  0  0  0  0  0  0  0  0
   55.9478   -3.6958   -8.5108 C   0  0  0  0  0  0  0  0  0  0  0  0
   57.4910   -4.6232  -11.8103 C   0  0  0  0  0  0  0  0  0  0  0  0
   58.6845   -4.8386  -12.1867 O   0  0  0  0  0  0  0  0  0  0  0  0
   56.4564   -4.4386  -12.7347 N   0  0  0  0  0  0  0  0  0  0  0  0
   55.4851   -4.2664  -12.4539 H   0  0  0  0  0  0  0  0  0  0  0  0
   56.7560   -4.4938  -14.1572 C   0  0  0  0  0  0  0  0  0  0  0  0
   56.0155   -5.7031  -14.7018 C   0  0  0  0  0  0  0  0  0  0  0  0
   56.3309   -3.2244  -14.8305 C   0  0  0  0  0  0  0  0  0  0  0  0
   54.9007   -2.9064   -7.9625 N   0  0  0  0  0  0  0  0  0  0  0  0
   55.0930   -2.3387   -7.0912 H   0  0  0  0  0  0  0  0  0  0  0  0
   53.3637   -2.8936   -8.7189 S   0  0  0  0  0  0  0  0  0  0  0  0
   52.6706   -1.5429   -8.5784 O   0  0  0  0  0  0  0  0  0  0  0  0
   53.5787   -3.1580  -10.2144 O   0  0  0  0  0  0  0  0  0  0  0  0
   52.3638   -4.1717   -8.0744 C   0  0  0  0  0  0  0  0  0  0  0  0
   52.7641   -5.4739   -8.1633 C   0  0  0  0  0  0  0  0  0  0  0  0
   51.8956   -6.4442   -7.6445 C   0  0  0  0  0  0  0  0  0  0  0  0
   50.6936   -6.1265   -7.0695 C   0  0  0  0  0  0  0  0  0  0  0  0
   49.6307   -7.3513   -6.4308 Cl  0  0  0  0  0  0  0  0  0  0  0  0
   50.3415   -4.8013   -7.0075 C   0  0  0  0  0  0  0  0  0  0  0  0
   51.1449   -3.8124   -7.4950 C   0  0  0  0  0  0  0  0  0  0  0  0
   50.6944   -2.1038   -7.4167 Cl  0  0  0  0  0  0  0  0  0  0  0  0
   56.4953   -4.3724   -6.2764 O   0  0  0  0  0  0  0  0  0  0  0  0
   56.4162   -6.3824   -4.9229 C   0  0  0  0  0  0  0  0  0  0  0  0
   55.6485   -7.2579   -4.1712 C   0  0  0  0  0  0  0  0  0  0  0  0
   54.2863   -7.0954   -3.9781 C   0  0  0  0  0  0  0  0  0  0  0  0
   53.6870   -6.0036   -4.5717 C   0  0  0  0  0  0  0  0  0  0  0  0
   54.4313   -5.1205   -5.3239 C   0  0  0  0  0  0  0  0  0  0  0  0
   55.8116   -5.2919   -5.5154 C   0  0  0  0  0  0  0  0  0  0  0  0
   58.4903   -7.3270   -4.0858 C   0  0  0  0  0  0  0  0  0  0  0  0
   57.7880   -6.5956   -5.0804 O   0  0  0  0  0  0  0  0  0  0  0  0
   53.4740   -8.0437   -3.1679 C   0  0  0  0  0  0  0  0  0  0  0  0
   52.7494   -7.3054   -2.1034 C   0  0  0  0  0  0  0  0  0  0  0  0
   53.2959   -6.7374   -1.1373 O   0  0  0  0  0  0  0  0  0  0  0  0
   51.3514   -7.2568   -2.2134 O   0  0  0  0  0  0  0  0  0  0  0  0
   50.9454   -6.8564   -3.0448 H   0  0  0  0  0  0  0  0  0  0  0  0
 34 35  1  0  0  0
 35 28  1  0  0  0
 28 29  2  0  0  0
 29 30  1  0  0  0
 30 36  1  0  0  0
 36 37  1  0  0  0
 37 38  2  0  0  0
 37 39  1  0  0  0
 30 31  2  0  0  0
 31 32  1  0  0  0
 32 33  2  0  0  0
 33 27  1  0  0  0
 27  1  1  0  0  0
  1  2  2  0  0  0
  2  3  1  0  0  0
  3  4  2  0  0  0
  4  7  1  0  0  0
  7  8  2  0  0  0
  7  9  1  0  0  0
  9 11  1  0  0  0
 11 12  1  0  0  0
 11 13  1  0  0  0
  4  5  1  0  0  0
  5  6  2  0  0  0
  6 14  1  0  0  0
 14 16  1  0  0  0
 16 17  2  0  0  0
 16 18  2  0  0  0
 16 19  1  0  0  0
 19 20  2  0  0  0
 20 21  1  0  0  0
 21 22  2  0  0  0
 22 23  1  0  0  0
 22 24  1  0  0  0
 24 25  2  0  0  0
 25 26  1  0  0  0
 33 28  1  0  0  0
  6  1  1  0  0  0
 25 19  1  0  0  0
 39 40  1  0  0  0
  9 10  1  0  0  0
 14 15  1  0  0  0
M  END
> <minimizedAffinity>
-7.26999

> <CNNscore>
0.6121312976

> <CNNaffinity>
7.5648789406

> <CNN_VS>
4.6306991577

> <CNNaffinity_variance>
0.2606507242

$$$$
[H]OC(=O)C([H])([H])c1c([H])c([H])c(Oc2c([H])c([H])c(C(=O)N([H])C([H])(C([H])([H])[H])C([H])([H])[H])c([H])c2N([H])S(=O)(=O)c2c([H])c([H])c(Cl)c([H])c2Cl)c(OC([H])([H])[H])c1[H]


 40 42  0  0  0  0  0  0  0  0999 V2000
   55.8236   -4.5623   -8.8769 C   0  0  0  0  0  0  0  0  0  0  0  0
   55.0997   -4.0341   -9.9109 C   0  0  0  0  0  0  0  0  0  0  0  0
   53.8627   -3.4538   -9.7089 C   0  0  0  0  0  0  0  0  0  0  0  0
   53.3361   -3.4000   -8.4435 C   0  0  0  0  0  0  0  0  0  0  0  0
   54.0745   -3.9359   -7.4093 C   0  0  0  0  0  0  0  0  0  0  0  0
   55.3048   -4.5201   -7.5676 C   0  0  0  0  0  0  0  0  0  0  0  0
   52.0269   -2.7875   -8.1855 C   0  0  0  0  0  0  0  0  0  0  0  0
   51.6820   -1.8267   -8.9409 O   0  0  0  0  0  0  0  0  0  0  0  0
   51.1951   -3.2404   -7.1551 N   0  0  0  0  0  0  0  0  0  0  0  0
   51.4514   -4.0160   -6.5350 H   0  0  0  0  0  0  0  0  0  0  0  0
   49.9083   -2.5951   -6.9449 C   0  0  0  0  0  0  0  0  0  0  0  0
   48.9623   -3.1858   -7.9761 C   0  0  0  0  0  0  0  0  0  0  0  0
   49.4294   -2.8282   -5.5443 C   0  0  0  0  0  0  0  0  0  0  0  0
   56.0741   -5.0892   -6.5166 N   0  0  0  0  0  0  0  0  0  0  0  0
   56.9974   -4.6416   -6.2607 H   0  0  0  0  0  0  0  0  0  0  0  0
   55.4931   -6.4763   -5.6961 S   0  0  0  0  0  0  0  0  0  0  0  0
   55.2714   -7.6486   -6.6453 O   0  0  0  0  0  0  0  0  0  0  0  0
   56.5589   -6.8935   -4.6751 O   0  0  0  0  0  0  0  0  0  0  0  0
   54.0250   -6.0946   -4.8314 C   0  0  0  0  0  0  0  0  0  0  0  0
   54.0737   -5.7147   -3.5210 C   0  0  0  0  0  0  0  0  0  0  0  0
   52.8511   -5.4485   -2.8891 C   0  0  0  0  0  0  0  0  0  0  0  0
   51.6479   -5.5576   -3.5347 C   0  0  0  0  0  0  0  0  0  0  0  0
   50.1404   -5.2206   -2.7274 Cl  0  0  0  0  0  0  0  0  0  0  0  0
   51.6584   -5.9440   -4.8518 C   0  0  0  0  0  0  0  0  0  0  0  0
   52.8161   -6.2163   -5.5200 C   0  0  0  0  0  0  0  0  0  0  0  0
   52.8332   -6.7144   -7.2171 Cl  0  0  0  0  0  0  0  0  0  0  0  0
   57.0616   -5.1403   -9.0773 O   0  0  0  0  0  0  0  0  0  0  0  0
   59.1975   -5.4172  -10.1904 C   0  0  0  0  0  0  0  0  0  0  0  0
   59.9828   -5.1473  -11.3001 C   0  0  0  0  0  0  0  0  0  0  0  0
   59.5394   -4.3958  -12.3762 C   0  0  0  0  0  0  0  0  0  0  0  0
   58.2520   -3.9030  -12.3185 C   0  0  0  0  0  0  0  0  0  0  0  0
   57.4538   -4.1589  -11.2243 C   0  0  0  0  0  0  0  0  0  0  0  0
   57.9104   -4.9212  -10.1372 C   0  0  0  0  0  0  0  0  0  0  0  0
   61.0627   -6.5776   -9.1561 C   0  0  0  0  0  0  0  0  0  0  0  0
   59.6979   -6.1846   -9.1355 O   0  0  0  0  0  0  0  0  0  0  0  0
   60.3938   -4.1137  -13.5619 C   0  0  0  0  0  0  0  0  0  0  0  0
   60.4364   -2.6521  -13.8167 C   0  0  0  0  0  0  0  0  0  0  0  0
   60.9338   -1.8118  -13.0414 O   0  0  0  0  0  0  0  0  0  0  0  0
   59.8708   -2.2083  -15.0218 O   0  0  0  0  0  0  0  0  0  0  0  0
   60.2337   -2.5720  -15.8891 H   0  0  0  0  0  0  0  0  0  0  0  0
 34 35  1  0  0  0
 35 28  1  0  0  0
 28 29  2  0  0  0
 29 30  1  0  0  0
 30 36  1  0  0  0
 36 37  1  0  0  0
 37 38  2  0  0  0
 37 39  1  0  0  0
 30 31  2  0  0  0
 31 32  1  0  0  0
 32 33  2  0  0  0
 33 27  1  0  0  0
 27  1  1  0  0  0
  1  2  2  0  0  0
  2  3  1  0  0  0
  3  4  2  0  0  0
  4  7  1  0  0  0
  7  8  2  0  0  0
  7  9  1  0  0  0
  9 11  1  0  0  0
 11 12  1  0  0  0
 11 13  1  0  0  0
  4  5  1  0  0  0
  5  6  2  0  0  0
  6 14  1  0  0  0
 14 16  1  0  0  0
 16 17  2  0  0  0
 16 18  2  0  0  0
 16 19  1  0  0  0
 19 20  2  0  0  0
 20 21  1  0  0  0
 21 22  2  0  0  0
 22 23  1  0  0  0
 22 24  1  0  0  0
 24 25  2  0  0  0
 25 26  1  0  0  0
 33 28  1  0  0  0
  6  1  1  0  0  0
 25 19  1  0  0  0
 39 40  1  0  0  0
  9 10  1  0  0  0
 14 15  1  0  0  0
M  END
> <minimizedAffinity>
-6.97217

> <CNNscore>
0.5632514954

> <CNNaffinity>
7.1924905777

> <CNN_VS>
4.0511808395

> <CNNaffinity_variance>
0.3547390103

$$$$
[H]OC(=O)C([H])([H])c1c([H])c([H])c(Oc2c([H])c([H])c(C(=O)N([H])C([H])(C([H])([H])[H])C([H])([H])[H])c([H])c2N([H])S(=O)(=O)c2c([H])c([H])c(Cl)c([H])c2Cl)c(OC([H])([H])[H])c1[H]


 40 42  0  0  0  0  0  0  0  0999 V2000
   56.2854   -5.2348   -6.1647 C   0  0  0  0  0  0  0  0  0  0  0  0
   57.0400   -6.1098   -5.4317 C   0  0  0  0  0  0  0  0  0  0  0  0
   56.4641   -6.9984   -4.5448 C   0  0  0  0  0  0  0  0  0  0  0  0
   55.1018   -7.0130   -4.3861 C   0  0  0  0  0  0  0  0  0  0  0  0
   54.3516   -6.1263   -5.1297 C   0  0  0  0  0  0  0  0  0  0  0  0
   54.8840   -5.2294   -6.0198 C   0  0  0  0  0  0  0  0  0  0  0  0
   54.4501   -7.9451   -3.4575 C   0  0  0  0  0  0  0  0  0  0  0  0
   54.8606   -9.1468   -3.4655 O   0  0  0  0  0  0  0  0  0  0  0  0
   53.4236   -7.5303   -2.6013 N   0  0  0  0  0  0  0  0  0  0  0  0
   53.0782   -6.5650   -2.5755 H   0  0  0  0  0  0  0  0  0  0  0  0
   52.8134   -8.4978   -1.7024 C   0  0  0  0  0  0  0  0  0  0  0  0
   53.4002   -8.2303   -0.3271 C   0  0  0  0  0  0  0  0  0  0  0  0
   51.3219   -8.3543   -1.7146 C   0  0  0  0  0  0  0  0  0  0  0  0
   54.1285   -4.2996   -6.7845 N   0  0  0  0  0  0  0  0  0  0  0  0
   54.4803   -3.3061   -6.8716 H   0  0  0  0  0  0  0  0  0  0  0  0
   52.6768   -4.8052   -7.5406 S   0  0  0  0  0  0  0  0  0  0  0  0
   52.6186   -4.3809   -9.0039 O   0  0  0  0  0  0  0  0  0  0  0  0
   52.6371   -6.3378   -7.4940 O   0  0  0  0  0  0  0  0  0  0  0  0
   51.2958   -4.1940   -6.6642 C   0  0  0  0  0  0  0  0  0  0  0  0
   50.7335   -4.9293   -5.6607 C   0  0  0  0  0  0  0  0  0  0  0  0
   49.6130   -4.3816   -5.0208 C   0  0  0  0  0  0  0  0  0  0  0  0
   49.0861   -3.1659   -5.3680 C   0  0  0  0  0  0  0  0  0  0  0  0
   47.6918   -2.5055   -4.5568 Cl  0  0  0  0  0  0  0  0  0  0  0  0
   49.6915   -2.4701   -6.3845 C   0  0  0  0  0  0  0  0  0  0  0  0
   50.7844   -2.9512   -7.0442 C   0  0  0  0  0  0  0  0  0  0  0  0
   51.5670   -2.0573   -8.3545 Cl  0  0  0  0  0  0  0  0  0  0  0  0
   56.8598   -4.3478   -7.0536 O   0  0  0  0  0  0  0  0  0  0  0  0
   58.0107   -5.1107   -9.0464 C   0  0  0  0  0  0  0  0  0  0  0  0
   58.0157   -5.2121  -10.4287 C   0  0  0  0  0  0  0  0  0  0  0  0
   56.9964   -4.7195  -11.2272 C   0  0  0  0  0  0  0  0  0  0  0  0
   55.9367   -4.1026  -10.5949 C   0  0  0  0  0  0  0  0  0  0  0  0
   55.9114   -3.9903   -9.2214 C   0  0  0  0  0  0  0  0  0  0  0  0
   56.9484   -4.4918   -8.4186 C   0  0  0  0  0  0  0  0  0  0  0  0
   60.2126   -6.1305   -8.9643 C   0  0  0  0  0  0  0  0  0  0  0  0
   59.0659   -5.6297   -8.2921 O   0  0  0  0  0  0  0  0  0  0  0  0
   57.0149   -4.8356  -12.7111 C   0  0  0  0  0  0  0  0  0  0  0  0
   58.1854   -4.1061  -13.2596 C   0  0  0  0  0  0  0  0  0  0  0  0
   58.1501   -3.3562  -14.2551 O   0  0  0  0  0  0  0  0  0  0  0  0
   59.4072   -4.2890  -12.5943 O   0  0  0  0  0  0  0  0  0  0  0  0
   59.4654   -4.0517  -11.6162 H   0  0  0  0  0  0  0  0  0  0  0  0
 34 35  1  0  0  0
 35 28  1  0  0  0
 28 29  2  0  0  0
 29 30  1  0  0  0
 30 36  1  0  0  0
 36 37  1  0  0  0
 37 38  2  0  0  0
 37 39  1  0  0  0
 30 31  2  0  0  0
 31 32  1  0  0  0
 32 33  2  0  0  0
 33 27  1  0  0  0
 27  1  1  0  0  0
  1  2  2  0  0  0
  2  3  1  0  0  0
  3  4  2  0  0  0
  4  7  1  0  0  0
  7  8  2  0  0  0
  7  9  1  0  0  0
  9 11  1  0  0  0
 11 12  1  0  0  0
 11 13  1  0  0  0
  4  5  1  0  0  0
  5  6  2  0  0  0
  6 14  1  0  0  0
 14 16  1  0  0  0
 16 17  2  0  0  0
 16 18  2  0  0  0
 16 19  1  0  0  0
 19 20  2  0  0  0
 20 21  1  0  0  0
 21 22  2  0  0  0
 22 23  1  0  0  0
 22 24  1  0  0  0
 24 25  2  0  0  0
 25 26  1  0  0  0
 33 28  1  0  0  0
  6  1  1  0  0  0
 25 19  1  0  0  0
 39 40  1  0  0  0
  9 10  1  0  0  0
 14 15  1  0  0  0
M  END
> <minimizedAffinity>
-9.40766

> <CNNscore>
0.5274736285

> <CNNaffinity>
7.4818372726

> <CNN_VS>
3.9464719296

> <CNNaffinity_variance>
0.1489921808

$$$$
[H]c1c([H])c([H])c(N([H])c2nc3c([H])nc(N([H])c4c([H])c([H])c(OC([H])([H])[H])c([H])c4[H])nc3n2C([H])(C([H])([H])[H])C([H])([H])[H])c(F)c1[H]


 31 34  0  0  0  0  0  0  0  0999 V2000
   53.4439   -3.5684   -8.6503 C   0  0  0  0  0  0  0  0  0  0  0  0
   52.2256   -3.0293   -8.6208 N   0  0  0  0  0  0  0  0  0  0  0  0
   51.2815   -3.2685   -7.7125 C   0  0  0  0  0  0  0  0  0  0  0  0
   51.5664   -4.1556   -6.6938 C   0  0  0  0  0  0  0  0  0  0  0  0
   50.8884   -4.6247   -5.6410 N   0  0  0  0  0  0  0  0  0  0  0  0
   51.6696   -5.4823   -4.9700 C   0  0  0  0  0  0  0  0  0  0  0  0
   52.8767   -5.5746   -5.5949 N   0  0  0  0  0  0  0  0  0  0  0  0
   52.8050   -4.7479   -6.6643 C   0  0  0  0  0  0  0  0  0  0  0  0
   53.6921   -4.4484   -7.6186 N   0  0  0  0  0  0  0  0  0  0  0  0
   54.0240   -6.3849   -5.2150 C   0  0  0  0  0  0  0  0  0  0  0  0
   55.0862   -5.5631   -4.5108 C   0  0  0  0  0  0  0  0  0  0  0  0
   54.5772   -7.1686   -6.3664 C   0  0  0  0  0  0  0  0  0  0  0  0
   54.4330   -3.3175   -9.6020 N   0  0  0  0  0  0  0  0  0  0  0  0
   54.2335   -2.5601  -10.3261 H   0  0  0  0  0  0  0  0  0  0  0  0
   58.1829   -5.2155  -10.1157 C   0  0  0  0  0  0  0  0  0  0  0  0
   57.6268   -5.0863   -8.8668 C   0  0  0  0  0  0  0  0  0  0  0  0
   56.3919   -4.4738   -8.6700 C   0  0  0  0  0  0  0  0  0  0  0  0
   55.6692   -3.9695   -9.7022 C   0  0  0  0  0  0  0  0  0  0  0  0
   56.2582   -4.1113  -10.9887 C   0  0  0  0  0  0  0  0  0  0  0  0
   57.4580   -4.7090  -11.1627 C   0  0  0  0  0  0  0  0  0  0  0  0
   60.2128   -6.1151   -9.1733 C   0  0  0  0  0  0  0  0  0  0  0  0
   59.4136   -5.8279  -10.2965 O   0  0  0  0  0  0  0  0  0  0  0  0
   51.3272   -6.1937   -3.7990 N   0  0  0  0  0  0  0  0  0  0  0  0
   50.4489   -6.8085   -3.8920 H   0  0  0  0  0  0  0  0  0  0  0  0
   51.9630   -6.2095   -2.5516 C   0  0  0  0  0  0  0  0  0  0  0  0
   52.6141   -5.1453   -1.9772 C   0  0  0  0  0  0  0  0  0  0  0  0
   53.2159   -5.2836   -0.7165 C   0  0  0  0  0  0  0  0  0  0  0  0
   53.1718   -6.4737   -0.0285 C   0  0  0  0  0  0  0  0  0  0  0  0
   52.5232   -7.5531   -0.5883 C   0  0  0  0  0  0  0  0  0  0  0  0
   51.9496   -7.4016   -1.8027 C   0  0  0  0  0  0  0  0  0  0  0  0
   51.3148   -8.4977   -2.3247 F   0  0  0  0  0  0  0  0  0  0  0  0
 21 22  1  0  0  0
 22 15  1  0  0  0
 15 16  2  0  0  0
 16 17  1  0  0  0
 17 18  2  0  0  0
 18 13  1  0  0  0
 13  1  1  0  0  0
  1  2  2  0  0  0
  2  3  1  0  0  0
  3  4  2  0  0  0
  4  5  1  0  0  0
  5  6  2  0  0  0
  6 23  1  0  0  0
 23 25  1  0  0  0
 25 26  2  0  0  0
 26 27  1  0  0  0
 27 28  2  0  0  0
 28 29  1  0  0  0
 29 30  2  0  0  0
 30 31  1  0  0  0
  6  7  1  0  0  0
  7 10  1  0  0  0
 10 11  1  0  0  0
 10 12  1  0  0  0
  7  8  1  0  0  0
  8  9  2  0  0  0
 18 19  1  0  0  0
 19 20  2  0  0  0
 20 15  1  0  0  0
  9  1  1  0  0  0
  8  4  1  0  0  0
 30 25  1  0  0  0
 13 14  1  0  0  0
 23 24  1  0  0  0
M  END
> <minimizedAffinity>
-9.22824

> <CNNscore>
0.5915478468

> <CNNaffinity>
7.3189382553

> <CNN_VS>
4.3295021057

> <CNNaffinity_variance>
0.2247055024

$$$$
[H]c1c([H])c([H])c(N([H])c2nc3c([H])nc(N([H])c4c([H])c([H])c(OC([H])([H])[H])c([H])c4[H])nc3n2C([H])(C([H])([H])[H])C([H])([H])[H])c(F)c1[H]


 31 34  0  0  0  0  0  0  0  0999 V2000
   54.8359   -3.7838   -9.9094 C   0  0  0  0  0  0  0  0  0  0  0  0
   53.7898   -3.0669  -10.3187 N   0  0  0  0  0  0  0  0  0  0  0  0
   52.6399   -2.9101   -9.6655 C   0  0  0  0  0  0  0  0  0  0  0  0
   52.4916   -3.5395   -8.4458 C   0  0  0  0  0  0  0  0  0  0  0  0
   51.5123   -3.6073   -7.5377 N   0  0  0  0  0  0  0  0  0  0  0  0
   51.9187   -4.3776   -6.5192 C   0  0  0  0  0  0  0  0  0  0  0  0
   53.1834   -4.8198   -6.7664 N   0  0  0  0  0  0  0  0  0  0  0  0
   53.5322   -4.2952   -7.9645 C   0  0  0  0  0  0  0  0  0  0  0  0
   54.6514   -4.3971   -8.6887 N   0  0  0  0  0  0  0  0  0  0  0  0
   54.0123   -5.6785   -5.9342 C   0  0  0  0  0  0  0  0  0  0  0  0
   55.2822   -4.9782   -5.4909 C   0  0  0  0  0  0  0  0  0  0  0  0
   54.2848   -7.0056   -6.5749 C   0  0  0  0  0  0  0  0  0  0  0  0
   56.0407   -3.9478  -10.5938 N   0  0  0  0  0  0  0  0  0  0  0  0
   56.0846   -3.5911  -11.5981 H   0  0  0  0  0  0  0  0  0  0  0  0
   59.4587   -5.7560   -8.8688 C   0  0  0  0  0  0  0  0  0  0  0  0
   59.3470   -5.6229  -10.2311 C   0  0  0  0  0  0  0  0  0  0  0  0
   58.2381   -5.0255  -10.8244 C   0  0  0  0  0  0  0  0  0  0  0  0
   57.2049   -4.5420  -10.0889 C   0  0  0  0  0  0  0  0  0  0  0  0
   57.3357   -4.6869   -8.6803 C   0  0  0  0  0  0  0  0  0  0  0  0
   58.4193   -5.2690   -8.1200 C   0  0  0  0  0  0  0  0  0  0  0  0
   61.6799   -6.6680   -9.0981 C   0  0  0  0  0  0  0  0  0  0  0  0
   60.5692   -6.3531   -8.2920 O   0  0  0  0  0  0  0  0  0  0  0  0
   51.1792   -4.6998   -5.3599 N   0  0  0  0  0  0  0  0  0  0  0  0
   51.6338   -5.4489   -4.7354 H   0  0  0  0  0  0  0  0  0  0  0  0
   49.9540   -4.1867   -4.9170 C   0  0  0  0  0  0  0  0  0  0  0  0
   49.3025   -3.1052   -5.4579 C   0  0  0  0  0  0  0  0  0  0  0  0
   48.0742   -2.6830   -4.9252 C   0  0  0  0  0  0  0  0  0  0  0  0
   47.4948   -3.3317   -3.8596 C   0  0  0  0  0  0  0  0  0  0  0  0
   48.1332   -4.4188   -3.3033 C   0  0  0  0  0  0  0  0  0  0  0  0
   49.3149   -4.8110   -3.8290 C   0  0  0  0  0  0  0  0  0  0  0  0
   49.9176   -5.8955   -3.2479 F   0  0  0  0  0  0  0  0  0  0  0  0
 21 22  1  0  0  0
 22 15  1  0  0  0
 15 16  2  0  0  0
 16 17  1  0  0  0
 17 18  2  0  0  0
 18 13  1  0  0  0
 13  1  1  0  0  0
  1  2  2  0  0  0
  2  3  1  0  0  0
  3  4  2  0  0  0
  4  5  1  0  0  0
  5  6  2  0  0  0
  6 23  1  0  0  0
 23 25  1  0  0  0
 25 26  2  0  0  0
 26 27  1  0  0  0
 27 28  2  0  0  0
 28 29  1  0  0  0
 29 30  2  0  0  0
 30 31  1  0  0  0
  6  7  1  0  0  0
  7 10  1  0  0  0
 10 11  1  0  0  0
 10 12  1  0  0  0
  7  8  1  0  0  0
  8  9  2  0  0  0
 18 19  1  0  0  0
 19 20  2  0  0  0
 20 15  1  0  0  0
  9  1  1  0  0  0
  8  4  1  0  0  0
 30 25  1  0  0  0
 13 14  1  0  0  0
 23 24  1  0  0  0
M  END
> <minimizedAffinity>
-8.00079

> <CNNscore>
0.5628173947

> <CNNaffinity>
7.1375894547

> <CNN_VS>
4.0171594620

> <CNNaffinity_variance>
0.1217586994

$$$$
[H]c1c([H])c([H])c(N([H])c2nc3c([H])nc(N([H])c4c([H])c([H])c(OC([H])([H])[H])c([H])c4[H])nc3n2C([H])(C([H])([H])[H])C([H])([H])[H])c(F)c1[H]


 31 34  0  0  0  0  0  0  0  0999 V2000
   65.6136   -5.6021  -11.4733 C   0  0  0  0  0  0  0  0  0  0  0  0
   65.4594   -6.9181  -11.6155 N   0  0  0  0  0  0  0  0  0  0  0  0
   65.3247   -7.8050  -10.6312 C   0  0  0  0  0  0  0  0  0  0  0  0
   65.3429   -7.3433   -9.3303 C   0  0  0  0  0  0  0  0  0  0  0  0
   65.2393   -7.9201   -8.1283 N   0  0  0  0  0  0  0  0  0  0  0  0
   65.3262   -6.9727   -7.1844 C   0  0  0  0  0  0  0  0  0  0  0  0
   65.4893   -5.7582   -7.7797 N   0  0  0  0  0  0  0  0  0  0  0  0
   65.4987   -5.9965   -9.1122 C   0  0  0  0  0  0  0  0  0  0  0  0
   65.6271   -5.1782  -10.1616 N   0  0  0  0  0  0  0  0  0  0  0  0
   65.6275   -4.4577   -7.1420 C   0  0  0  0  0  0  0  0  0  0  0  0
   65.7547   -4.5792   -5.6358 C   0  0  0  0  0  0  0  0  0  0  0  0
   64.5466   -3.5030   -7.5495 C   0  0  0  0  0  0  0  0  0  0  0  0
   65.7547   -4.6731  -12.5047 N   0  0  0  0  0  0  0  0  0  0  0  0
   66.7382   -4.3136  -12.7075 H   0  0  0  0  0  0  0  0  0  0  0  0
   62.4999   -3.2686  -14.8203 C   0  0  0  0  0  0  0  0  0  0  0  0
   63.6861   -2.5775  -14.7849 C   0  0  0  0  0  0  0  0  0  0  0  0
   64.7747   -3.0206  -14.0385 C   0  0  0  0  0  0  0  0  0  0  0  0
   64.7236   -4.1603  -13.3032 C   0  0  0  0  0  0  0  0  0  0  0  0
   63.4891   -4.8645  -13.3505 C   0  0  0  0  0  0  0  0  0  0  0  0
   62.4417   -4.4208  -14.0807 C   0  0  0  0  0  0  0  0  0  0  0  0
   61.0274   -3.5340  -16.7123 C   0  0  0  0  0  0  0  0  0  0  0  0
   61.4241   -2.8151  -15.5683 O   0  0  0  0  0  0  0  0  0  0  0  0
   65.2628   -7.1680   -5.7871 N   0  0  0  0  0  0  0  0  0  0  0  0
   66.2050   -7.0586   -5.2788 H   0  0  0  0  0  0  0  0  0  0  0  0
   64.1597   -7.4797   -4.9831 C   0  0  0  0  0  0  0  0  0  0  0  0
   62.9120   -7.8235   -5.4432 C   0  0  0  0  0  0  0  0  0  0  0  0
   61.8814   -8.1156   -4.5358 C   0  0  0  0  0  0  0  0  0  0  0  0
   62.0884   -8.0666   -3.1769 C   0  0  0  0  0  0  0  0  0  0  0  0
   63.3333   -7.7236   -2.6959 C   0  0  0  0  0  0  0  0  0  0  0  0
   64.3134   -7.4456   -3.5841 C   0  0  0  0  0  0  0  0  0  0  0  0
   65.5363   -7.1090   -3.0661 F   0  0  0  0  0  0  0  0  0  0  0  0
 21 22  1  0  0  0
 22 15  1  0  0  0
 15 16  2  0  0  0
 16 17  1  0  0  0
 17 18  2  0  0  0
 18 13  1  0  0  0
 13  1  1  0  0  0
  1  2  2  0  0  0
  2  3  1  0  0  0
  3  4  2  0  0  0
  4  5  1  0  0  0
  5  6  2  0  0  0
  6 23  1  0  0  0
 23 25  1  0  0  0
 25 26  2  0  0  0
 26 27  1  0  0  0
 27 28  2  0  0  0
 28 29  1  0  0  0
 29 30  2  0  0  0
 30 31  1  0  0  0
  6  7  1  0  0  0
  7 10  1  0  0  0
 10 11  1  0  0  0
 10 12  1  0  0  0
  7  8  1  0  0  0
  8  9  2  0  0  0
 18 19  1  0  0  0
 19 20  2  0  0  0
 20 15  1  0  0  0
  9  1  1  0  0  0
  8  4  1  0  0  0
 30 25  1  0  0  0
 13 14  1  0  0  0
 23 24  1  0  0  0
M  END
> <minimizedAffinity>
-2.60525

> <CNNscore>
0.4742292762

> <CNNaffinity>
5.2562308311

> <CNN_VS>
2.4926586151

> <CNNaffinity_variance>
0.4858904779

$$$$
[H]c1c([H])c([H])c(N([H])c2nc3c([H])nc(N([H])c4c([H])c([H])c(OC([H])([H])[H])c([H])c4[H])nc3n2C([H])(C([H])([H])[H])C([H])([H])[H])c(F)c1[H]


 31 34  0  0  0  0  0  0  0  0999 V2000
   59.0239   -5.6879   -9.3154 C   0  0  0  0  0  0  0  0  0  0  0  0
   58.7521   -5.4068  -10.5893 N   0  0  0  0  0  0  0  0  0  0  0  0
   57.6262   -4.8673  -11.0527 C   0  0  0  0  0  0  0  0  0  0  0  0
   56.6295   -4.5605  -10.1481 C   0  0  0  0  0  0  0  0  0  0  0  0
   55.4068   -4.0275  -10.2439 N   0  0  0  0  0  0  0  0  0  0  0  0
   54.8679   -3.9572   -9.0189 C   0  0  0  0  0  0  0  0  0  0  0  0
   55.7528   -4.4521   -8.1090 N   0  0  0  0  0  0  0  0  0  0  0  0
   56.8442   -4.8247   -8.8178 C   0  0  0  0  0  0  0  0  0  0  0  0
   58.0064   -5.3682   -8.4419 N   0  0  0  0  0  0  0  0  0  0  0  0
   55.5873   -4.5688   -6.6682 C   0  0  0  0  0  0  0  0  0  0  0  0
   56.4059   -3.5338   -5.9210 C   0  0  0  0  0  0  0  0  0  0  0  0
   55.8379   -5.9614   -6.1745 C   0  0  0  0  0  0  0  0  0  0  0  0
   60.2037   -6.2530   -8.8300 N   0  0  0  0  0  0  0  0  0  0  0  0
   60.4398   -6.0850   -7.8035 H   0  0  0  0  0  0  0  0  0  0  0  0
   62.8199   -8.7487  -11.0335 C   0  0  0  0  0  0  0  0  0  0  0  0
   63.0268   -7.3923  -10.9753 C   0  0  0  0  0  0  0  0  0  0  0  0
   62.1870   -6.5495  -10.2520 C   0  0  0  0  0  0  0  0  0  0  0  0
   61.1162   -7.0219   -9.5647 C   0  0  0  0  0  0  0  0  0  0  0  0
   60.9158   -8.4280   -9.6345 C   0  0  0  0  0  0  0  0  0  0  0  0
   61.7408   -9.2325  -10.3410 C   0  0  0  0  0  0  0  0  0  0  0  0
   63.4559  -10.9680  -11.7322 C   0  0  0  0  0  0  0  0  0  0  0  0
   63.6647   -9.5757  -11.7578 O   0  0  0  0  0  0  0  0  0  0  0  0
   53.5894   -3.4557   -8.6891 N   0  0  0  0  0  0  0  0  0  0  0  0
   53.3954   -2.4598   -9.0476 H   0  0  0  0  0  0  0  0  0  0  0  0
   52.5542   -4.0662   -7.9707 C   0  0  0  0  0  0  0  0  0  0  0  0
   52.5043   -5.3933   -7.6203 C   0  0  0  0  0  0  0  0  0  0  0  0
   51.4093   -5.8911   -6.8965 C   0  0  0  0  0  0  0  0  0  0  0  0
   50.3677   -5.0747   -6.5219 C   0  0  0  0  0  0  0  0  0  0  0  0
   50.3995   -3.7402   -6.8641 C   0  0  0  0  0  0  0  0  0  0  0  0
   51.4616   -3.2786   -7.5611 C   0  0  0  0  0  0  0  0  0  0  0  0
   51.4555   -1.9467   -7.8819 F   0  0  0  0  0  0  0  0  0  0  0  0
 21 22  1  0  0  0
 22 15  1  0  0  0
 15 16  2  0  0  0
 16 17  1  0  0  0
 17 18  2  0  0  0
 18 13  1  0  0  0
 13  1  1  0  0  0
  1  2  2  0  0  0
  2  3  1  0  0  0
  3  4  2  0  0  0
  4  5  1  0  0  0
  5  6  2  0  0  0
  6 23  1  0  0  0
 23 25  1  0  0  0
 25 26  2  0  0  0
 26 27  1  0  0  0
 27 28  2  0  0  0
 28 29  1  0  0  0
 29 30  2  0  0  0
 30 31  1  0  0  0
  6  7  1  0  0  0
  7 10  1  0  0  0
 10 11  1  0  0  0
 10 12  1  0  0  0
  7  8  1  0  0  0
  8  9  2  0  0  0
 18 19  1  0  0  0
 19 20  2  0  0  0
 20 15  1  0  0  0
  9  1  1  0  0  0
  8  4  1  0  0  0
 30 25  1  0  0  0
 13 14  1  0  0  0
 23 24  1  0  0  0
M  END
> <minimizedAffinity>
-8.52732

> <CNNscore>
0.4623801112

> <CNNaffinity>
6.6495466232

> <CNN_VS>
3.0746181011

> <CNNaffinity_variance>
0.1188451797

$$$$
[H]c1c([H])c([H])c(N([H])c2nc3c([H])nc(N([H])c4c([H])c([H])c(OC([H])([H])[H])c([H])c4[H])nc3n2C([H])(C([H])([H])[H])C([H])([H])[H])c(F)c1[H]


 31 34  0  0  0  0  0  0  0  0999 V2000
   53.2318   -6.7854   -6.9730 C   0  0  0  0  0  0  0  0  0  0  0  0
   52.3020   -6.4120   -7.8515 N   0  0  0  0  0  0  0  0  0  0  0  0
   51.1090   -5.8958   -7.5623 C   0  0  0  0  0  0  0  0  0  0  0  0
   50.7791   -5.7202   -6.2333 C   0  0  0  0  0  0  0  0  0  0  0  0
   49.7086   -5.2467   -5.5868 N   0  0  0  0  0  0  0  0  0  0  0  0
   49.9367   -5.3093   -4.2676 C   0  0  0  0  0  0  0  0  0  0  0  0
   51.1758   -5.8320   -4.0496 N   0  0  0  0  0  0  0  0  0  0  0  0
   51.6926   -6.0845   -5.2750 C   0  0  0  0  0  0  0  0  0  0  0  0
   52.8675   -6.5955   -5.6571 N   0  0  0  0  0  0  0  0  0  0  0  0
   51.8338   -6.0791   -2.7757 C   0  0  0  0  0  0  0  0  0  0  0  0
   51.3059   -7.3309   -2.1020 C   0  0  0  0  0  0  0  0  0  0  0  0
   51.7973   -4.8843   -1.8718 C   0  0  0  0  0  0  0  0  0  0  0  0
   54.4818   -7.3262   -7.2763 N   0  0  0  0  0  0  0  0  0  0  0  0
   54.5365   -8.3822   -7.4161 H   0  0  0  0  0  0  0  0  0  0  0  0
   58.0296   -5.0966   -7.8848 C   0  0  0  0  0  0  0  0  0  0  0  0
   57.7525   -5.6546   -6.6610 C   0  0  0  0  0  0  0  0  0  0  0  0
   56.5975   -6.3989   -6.4353 C   0  0  0  0  0  0  0  0  0  0  0  0
   55.6806   -6.6136   -7.4127 C   0  0  0  0  0  0  0  0  0  0  0  0
   55.9821   -6.0298   -8.6739 C   0  0  0  0  0  0  0  0  0  0  0  0
   57.1082   -5.3102   -8.8766 C   0  0  0  0  0  0  0  0  0  0  0  0
   60.3210   -4.9923   -8.6312 C   0  0  0  0  0  0  0  0  0  0  0  0
   59.1840   -4.3579   -8.0949 O   0  0  0  0  0  0  0  0  0  0  0  0
   49.0548   -4.9064   -3.2407 N   0  0  0  0  0  0  0  0  0  0  0  0
   49.3297   -5.2481   -2.2580 H   0  0  0  0  0  0  0  0  0  0  0  0
   47.8893   -4.1349   -3.3229 C   0  0  0  0  0  0  0  0  0  0  0  0
   46.6692   -4.4783   -2.7938 C   0  0  0  0  0  0  0  0  0  0  0  0
   45.5691   -3.6189   -2.9416 C   0  0  0  0  0  0  0  0  0  0  0  0
   45.6796   -2.4230   -3.6121 C   0  0  0  0  0  0  0  0  0  0  0  0
   46.8955   -2.0609   -4.1501 C   0  0  0  0  0  0  0  0  0  0  0  0
   47.9435   -2.9007   -3.9980 C   0  0  0  0  0  0  0  0  0  0  0  0
   49.1345   -2.5045   -4.5472 F   0  0  0  0  0  0  0  0  0  0  0  0
 21 22  1  0  0  0
 22 15  1  0  0  0
 15 16  2  0  0  0
 16 17  1  0  0  0
 17 18  2  0  0  0
 18 13  1  0  0  0
 13  1  1  0  0  0
  1  2  2  0  0  0
  2  3  1  0  0  0
  3  4  2  0  0  0
  4  5  1  0  0  0
  5  6  2  0  0  0
  6 23  1  0  0  0
 23 25  1  0  0  0
 25 26  2  0  0  0
 26 27  1  0  0  0
 27 28  2  0  0  0
 28 29  1  0  0  0
 29 30  2  0  0  0
 30 31  1  0  0  0
  6  7  1  0  0  0
  7 10  1  0  0  0
 10 11  1  0  0  0
 10 12  1  0  0  0
  7  8  1  0  0  0
  8  9  2  0  0  0
 18 19  1  0  0  0
 19 20  2  0  0  0
 20 15  1  0  0  0
  9  1  1  0  0  0
  8  4  1  0  0  0
 30 25  1  0  0  0
 13 14  1  0  0  0
 23 24  1  0  0  0
M  END
> <minimizedAffinity>
6.90949

> <CNNscore>
0.3931658566

> <CNNaffinity>
6.5758872032

> <CNN_VS>
2.5854144096

> <CNNaffinity_variance>
0.6241978407

$$$$
[H]c1c([H])c([H])c(N([H])c2nc3c([H])nc(N([H])c4c([H])c([H])c(OC([H])([H])[H])c([H])c4[H])nc3n2C([H])(C([H])([H])[H])C([H])([H])[H])c(F)c1[H]


 31 34  0  0  0  0  0  0  0  0999 V2000
   52.1682   -3.3828   -7.9607 C   0  0  0  0  0  0  0  0  0  0  0  0
   50.9132   -3.0356   -7.6773 N   0  0  0  0  0  0  0  0  0  0  0  0
   50.1814   -3.4910   -6.6621 C   0  0  0  0  0  0  0  0  0  0  0  0
   50.7536   -4.4114   -5.8070 C   0  0  0  0  0  0  0  0  0  0  0  0
   50.3369   -5.0662   -4.7180 N   0  0  0  0  0  0  0  0  0  0  0  0
   51.3291   -5.8534   -4.2800 C   0  0  0  0  0  0  0  0  0  0  0  0
   52.4106   -5.7102   -5.0960 N   0  0  0  0  0  0  0  0  0  0  0  0
   52.0456   -4.8132   -6.0417 C   0  0  0  0  0  0  0  0  0  0  0  0
   52.7059   -4.3028   -7.0861 N   0  0  0  0  0  0  0  0  0  0  0  0
   53.7032   -6.3708   -4.9966 C   0  0  0  0  0  0  0  0  0  0  0  0
   54.7217   -5.5109   -4.2736 C   0  0  0  0  0  0  0  0  0  0  0  0
   54.2023   -6.8538   -6.3246 C   0  0  0  0  0  0  0  0  0  0  0  0
   52.9348   -2.9054   -9.0243 N   0  0  0  0  0  0  0  0  0  0  0  0
   52.5447   -2.0800   -9.5760 H   0  0  0  0  0  0  0  0  0  0  0  0
   56.7350   -4.4483  -10.0757 C   0  0  0  0  0  0  0  0  0  0  0  0
   55.7425   -4.3254  -11.0168 C   0  0  0  0  0  0  0  0  0  0  0  0
   54.4866   -3.8141  -10.7004 C   0  0  0  0  0  0  0  0  0  0  0  0
   54.1733   -3.4094   -9.4433 C   0  0  0  0  0  0  0  0  0  0  0  0
   55.2114   -3.5426   -8.4807 C   0  0  0  0  0  0  0  0  0  0  0  0
   56.4256   -4.0407   -8.8044 C   0  0  0  0  0  0  0  0  0  0  0  0
   58.6292   -4.5002  -11.5682 C   0  0  0  0  0  0  0  0  0  0  0  0
   57.9811   -4.9592  -10.4054 O   0  0  0  0  0  0  0  0  0  0  0  0
   51.2924   -6.7073   -3.1556 N   0  0  0  0  0  0  0  0  0  0  0  0
   50.4083   -7.3172   -3.0881 H   0  0  0  0  0  0  0  0  0  0  0  0
   52.2335   -6.8680   -2.1314 C   0  0  0  0  0  0  0  0  0  0  0  0
   52.8529   -8.0479   -1.7985 C   0  0  0  0  0  0  0  0  0  0  0  0
   53.7828   -8.0842   -0.7474 C   0  0  0  0  0  0  0  0  0  0  0  0
   54.0967   -6.9537   -0.0296 C   0  0  0  0  0  0  0  0  0  0  0  0
   53.4858   -5.7605   -0.3486 C   0  0  0  0  0  0  0  0  0  0  0  0
   52.5932   -5.7443   -1.3633 C   0  0  0  0  0  0  0  0  0  0  0  0
   52.0078   -4.5391   -1.6493 F   0  0  0  0  0  0  0  0  0  0  0  0
 21 22  1  0  0  0
 22 15  1  0  0  0
 15 16  2  0  0  0
 16 17  1  0  0  0
 17 18  2  0  0  0
 18 13  1  0  0  0
 13  1  1  0  0  0
  1  2  2  0  0  0
  2  3  1  0  0  0
  3  4  2  0  0  0
  4  5  1  0  0  0
  5  6  2  0  0  0
  6 23  1  0  0  0
 23 25  1  0  0  0
 25 26  2  0  0  0
 26 27  1  0  0  0
 27 28  2  0  0  0
 28 29  1  0  0  0
 29 30  2  0  0  0
 30 31  1  0  0  0
  6  7  1  0  0  0
  7 10  1  0  0  0
 10 11  1  0  0  0
 10 12  1  0  0  0
  7  8  1  0  0  0
  8  9  2  0  0  0
 18 19  1  0  0  0
 19 20  2  0  0  0
 20 15  1  0  0  0
  9  1  1  0  0  0
  8  4  1  0  0  0
 30 25  1  0  0  0
 13 14  1  0  0  0
 23 24  1  0  0  0
M  END
> <minimizedAffinity>
-8.19932

> <CNNscore>
0.3049629927

> <CNNaffinity>
7.0764036179

> <CNN_VS>
2.1580412388

> <CNNaffinity_variance>
0.2643120885

$$$$
[H]c1c([H])c([H])c(N([H])c2nc3c([H])nc(N([H])c4c([H])c([H])c(OC([H])([H])[H])c([H])c4[H])nc3n2C([H])(C([H])([H])[H])C([H])([H])[H])c(F)c1[H]


 31 34  0  0  0  0  0  0  0  0999 V2000
   57.2692   -5.1141   -8.0929 C   0  0  0  0  0  0  0  0  0  0  0  0
   56.7709   -4.3956   -9.0985 N   0  0  0  0  0  0  0  0  0  0  0  0
   55.4840   -4.1262   -9.3105 C   0  0  0  0  0  0  0  0  0  0  0  0
   54.5573   -4.6270   -8.4182 C   0  0  0  0  0  0  0  0  0  0  0  0
   53.2256   -4.5635   -8.3137 N   0  0  0  0  0  0  0  0  0  0  0  0
   52.8434   -5.2481   -7.2268 C   0  0  0  0  0  0  0  0  0  0  0  0
   53.9430   -5.7667   -6.6121 N   0  0  0  0  0  0  0  0  0  0  0  0
   55.0034   -5.3768   -7.3577 C   0  0  0  0  0  0  0  0  0  0  0  0
   56.3151   -5.5972   -7.2231 N   0  0  0  0  0  0  0  0  0  0  0  0
   53.9976   -6.5756   -5.4039 C   0  0  0  0  0  0  0  0  0  0  0  0
   54.0810   -5.7190   -4.1553 C   0  0  0  0  0  0  0  0  0  0  0  0
   55.0774   -7.6134   -5.4586 C   0  0  0  0  0  0  0  0  0  0  0  0
   58.6176   -5.3961   -7.8709 N   0  0  0  0  0  0  0  0  0  0  0  0
   58.9725   -5.3268   -6.8675 H   0  0  0  0  0  0  0  0  0  0  0  0
   61.5603   -6.6232  -10.6571 C   0  0  0  0  0  0  0  0  0  0  0  0
   60.4290   -5.9661  -11.0746 C   0  0  0  0  0  0  0  0  0  0  0  0
   59.4494   -5.5444  -10.1794 C   0  0  0  0  0  0  0  0  0  0  0  0
   59.5578   -5.7605   -8.8439 C   0  0  0  0  0  0  0  0  0  0  0  0
   60.7346   -6.4416   -8.4275 C   0  0  0  0  0  0  0  0  0  0  0  0
   61.6765   -6.8440   -9.3095 C   0  0  0  0  0  0  0  0  0  0  0  0
   63.0706   -6.1049  -12.4649 C   0  0  0  0  0  0  0  0  0  0  0  0
   62.5275   -7.0372  -11.5601 O   0  0  0  0  0  0  0  0  0  0  0  0
   51.5205   -5.4235   -6.7644 N   0  0  0  0  0  0  0  0  0  0  0  0
   51.1503   -6.4307   -6.8451 H   0  0  0  0  0  0  0  0  0  0  0  0
   50.6367   -4.4820   -6.2232 C   0  0  0  0  0  0  0  0  0  0  0  0
   50.1832   -3.3558   -6.8655 C   0  0  0  0  0  0  0  0  0  0  0  0
   49.2953   -2.4832   -6.2168 C   0  0  0  0  0  0  0  0  0  0  0  0
   48.8591   -2.7274   -4.9354 C   0  0  0  0  0  0  0  0  0  0  0  0
   49.3029   -3.8521   -4.2744 C   0  0  0  0  0  0  0  0  0  0  0  0
   50.1575   -4.6809   -4.9145 C   0  0  0  0  0  0  0  0  0  0  0  0
   50.5753   -5.7877   -4.2236 F   0  0  0  0  0  0  0  0  0  0  0  0
 21 22  1  0  0  0
 22 15  1  0  0  0
 15 16  2  0  0  0
 16 17  1  0  0  0
 17 18  2  0  0  0
 18 13  1  0  0  0
 13  1  1  0  0  0
  1  2  2  0  0  0
  2  3  1  0  0  0
  3  4  2  0  0  0
  4  5  1  0  0  0
  5  6  2  0  0  0
  6 23  1  0  0  0
 23 25  1  0  0  0
 25 26  2  0  0  0
 26 27  1  0  0  0
 27 28  2  0  0  0
 28 29  1  0  0  0
 29 30  2  0  0  0
 30 31  1  0  0  0
  6  7  1  0  0  0
  7 10  1  0  0  0
 10 11  1  0  0  0
 10 12  1  0  0  0
  7  8  1  0  0  0
  8  9  2  0  0  0
 18 19  1  0  0  0
 19 20  2  0  0  0
 20 15  1  0  0  0
  9  1  1  0  0  0
  8  4  1  0  0  0
 30 25  1  0  0  0
 13 14  1  0  0  0
 23 24  1  0  0  0
M  END
> <minimizedAffinity>
-7.87894

> <CNNscore>
0.2810285091

> <CNNaffinity>
6.6096754074

> <CNN_VS>
1.8575072289

> <CNNaffinity_variance>
0.1464529335

$$$$
[H]c1c([H])c([H])c(N([H])c2nc3c([H])nc(N([H])c4c([H])c([H])c(OC([H])([H])[H])c([H])c4[H])nc3n2C([H])(C([H])([H])[H])C([H])([H])[H])c(F)c1[H]


 31 34  0  0  0  0  0  0  0  0999 V2000
   55.8151   -3.8533   -9.8798 C   0  0  0  0  0  0  0  0  0  0  0  0
   54.6042   -3.4981  -10.3080 N   0  0  0  0  0  0  0  0  0  0  0  0
   53.4444   -3.8035   -9.7291 C   0  0  0  0  0  0  0  0  0  0  0  0
   53.4711   -4.5591   -8.5740 C   0  0  0  0  0  0  0  0  0  0  0  0
   52.5380   -5.0412   -7.7462 N   0  0  0  0  0  0  0  0  0  0  0  0
   53.1420   -5.7214   -6.7621 C   0  0  0  0  0  0  0  0  0  0  0  0
   54.4907   -5.6828   -6.9505 N   0  0  0  0  0  0  0  0  0  0  0  0
   54.6872   -4.9594   -8.0775 C   0  0  0  0  0  0  0  0  0  0  0  0
   55.8022   -4.6063   -8.7251 N   0  0  0  0  0  0  0  0  0  0  0  0
   55.5290   -6.2847   -6.1279 C   0  0  0  0  0  0  0  0  0  0  0  0
   55.1489   -7.6801   -5.6719 C   0  0  0  0  0  0  0  0  0  0  0  0
   55.9390   -5.4024   -4.9880 C   0  0  0  0  0  0  0  0  0  0  0  0
   57.0301   -3.5331  -10.4865 N   0  0  0  0  0  0  0  0  0  0  0  0
   57.8143   -3.1818   -9.8544 H   0  0  0  0  0  0  0  0  0  0  0  0
   57.6962   -3.7710  -14.6611 C   0  0  0  0  0  0  0  0  0  0  0  0
   58.7513   -3.7040  -13.7846 C   0  0  0  0  0  0  0  0  0  0  0  0
   58.5612   -3.6330  -12.4071 C   0  0  0  0  0  0  0  0  0  0  0  0
   57.3218   -3.6252  -11.8539 C   0  0  0  0  0  0  0  0  0  0  0  0
   56.2402   -3.6954  -12.7743 C   0  0  0  0  0  0  0  0  0  0  0  0
   56.4419   -3.7644  -14.1091 C   0  0  0  0  0  0  0  0  0  0  0  0
   56.8628   -3.4630  -16.9036 C   0  0  0  0  0  0  0  0  0  0  0  0
   57.9008   -3.8414  -16.0306 O   0  0  0  0  0  0  0  0  0  0  0  0
   52.5108   -6.3842   -5.6864 N   0  0  0  0  0  0  0  0  0  0  0  0
   52.6903   -7.4446   -5.6496 H   0  0  0  0  0  0  0  0  0  0  0  0
   51.6958   -5.8601   -4.6757 C   0  0  0  0  0  0  0  0  0  0  0  0
   52.0640   -5.6946   -3.3628 C   0  0  0  0  0  0  0  0  0  0  0  0
   51.1554   -5.1564   -2.4380 C   0  0  0  0  0  0  0  0  0  0  0  0
   49.8861   -4.7838   -2.8147 C   0  0  0  0  0  0  0  0  0  0  0  0
   49.4980   -4.9421   -4.1274 C   0  0  0  0  0  0  0  0  0  0  0  0
   50.3859   -5.4619   -5.0039 C   0  0  0  0  0  0  0  0  0  0  0  0
   49.9619   -5.6033   -6.2989 F   0  0  0  0  0  0  0  0  0  0  0  0
 21 22  1  0  0  0
 22 15  1  0  0  0
 15 16  2  0  0  0
 16 17  1  0  0  0
 17 18  2  0  0  0
 18 13  1  0  0  0
 13  1  1  0  0  0
  1  2  2  0  0  0
  2  3  1  0  0  0
  3  4  2  0  0  0
  4  5  1  0  0  0
  5  6  2  0  0  0
  6 23  1  0  0  0
 23 25  1  0  0  0
 25 26  2  0  0  0
 26 27  1  0  0  0
 27 28  2  0  0  0
 28 29  1  0  0  0
 29 30  2  0  0  0
 30 31  1  0  0  0
  6  7  1  0  0  0
  7 10  1  0  0  0
 10 11  1  0  0  0
 10 12  1  0  0  0
  7  8  1  0  0  0
  8  9  2  0  0  0
 18 19  1  0  0  0
 19 20  2  0  0  0
 20 15  1  0  0  0
  9  1  1  0  0  0
  8  4  1  0  0  0
 30 25  1  0  0  0
 13 14  1  0  0  0
 23 24  1  0  0  0
M  END
> <minimizedAffinity>
-7.88122

> <CNNscore>
0.2605758309

> <CNNaffinity>
6.7205667496

> <CNN_VS>
1.7512172461

> <CNNaffinity_variance>
0.1000670940

$$$$
[H]c1c([H])c([H])c(N([H])c2nc3c([H])nc(N([H])c4c([H])c([H])c(OC([H])([H])[H])c([H])c4[H])nc3n2C([H])(C([H])([H])[H])C([H])([H])[H])c(F)c1[H]


 31 34  0  0  0  0  0  0  0  0999 V2000
   59.2627   -6.0294   -8.3616 C   0  0  0  0  0  0  0  0  0  0  0  0
   60.0324   -4.9507   -8.2212 N   0  0  0  0  0  0  0  0  0  0  0  0
   61.3524   -4.8991   -8.3902 C   0  0  0  0  0  0  0  0  0  0  0  0
   62.0104   -6.0597   -8.7449 C   0  0  0  0  0  0  0  0  0  0  0  0
   63.2856   -6.3775   -8.9919 N   0  0  0  0  0  0  0  0  0  0  0  0
   63.3557   -7.6803   -9.2984 C   0  0  0  0  0  0  0  0  0  0  0  0
   62.1064   -8.2215   -9.2506 N   0  0  0  0  0  0  0  0  0  0  0  0
   61.2765   -7.2091   -8.9062 C   0  0  0  0  0  0  0  0  0  0  0  0
   59.9538   -7.1684   -8.7158 N   0  0  0  0  0  0  0  0  0  0  0  0
   61.7146   -9.5984   -9.5106 C   0  0  0  0  0  0  0  0  0  0  0  0
   60.6011   -9.6836  -10.5365 C   0  0  0  0  0  0  0  0  0  0  0  0
   61.3929  -10.3488   -8.2538 C   0  0  0  0  0  0  0  0  0  0  0  0
   57.8797   -6.0832   -8.1846 N   0  0  0  0  0  0  0  0  0  0  0  0
   57.4630   -7.0138   -7.8714 H   0  0  0  0  0  0  0  0  0  0  0  0
   55.1272   -2.9687   -8.9917 C   0  0  0  0  0  0  0  0  0  0  0  0
   55.5339   -3.2305   -7.7064 C   0  0  0  0  0  0  0  0  0  0  0  0
   56.4436   -4.2430   -7.4135 C   0  0  0  0  0  0  0  0  0  0  0  0
   56.9786   -5.0286   -8.3824 C   0  0  0  0  0  0  0  0  0  0  0  0
   56.5479   -4.7449   -9.7077 C   0  0  0  0  0  0  0  0  0  0  0  0
   55.6641   -3.7577   -9.9752 C   0  0  0  0  0  0  0  0  0  0  0  0
   52.8525   -2.2694   -9.3854 C   0  0  0  0  0  0  0  0  0  0  0  0
   54.2205   -1.9569   -9.2684 O   0  0  0  0  0  0  0  0  0  0  0  0
   64.5221   -8.4071   -9.6238 N   0  0  0  0  0  0  0  0  0  0  0  0
   65.1925   -7.8970  -10.2935 H   0  0  0  0  0  0  0  0  0  0  0  0
   64.9215   -9.6810   -9.2016 C   0  0  0  0  0  0  0  0  0  0  0  0
   64.9955  -10.0990   -7.8954 C   0  0  0  0  0  0  0  0  0  0  0  0
   65.4117  -11.4058   -7.5956 C   0  0  0  0  0  0  0  0  0  0  0  0
   65.7531  -12.2942   -8.5885 C   0  0  0  0  0  0  0  0  0  0  0  0
   65.6853  -11.8934   -9.9052 C   0  0  0  0  0  0  0  0  0  0  0  0
   65.2826  -10.6318  -10.1750 C   0  0  0  0  0  0  0  0  0  0  0  0
   65.2286  -10.2721  -11.4959 F   0  0  0  0  0  0  0  0  0  0  0  0
 21 22  1  0  0  0
 22 15  1  0  0  0
 15 16  2  0  0  0
 16 17  1  0  0  0
 17 18  2  0  0  0
 18 13  1  0  0  0
 13  1  1  0  0  0
  1  2  2  0  0  0
  2  3  1  0  0  0
  3  4  2  0  0  0
  4  5  1  0  0  0
  5  6  2  0  0  0
  6 23  1  0  0  0
 23 25  1  0  0  0
 25 26  2  0  0  0
 26 27  1  0  0  0
 27 28  2  0  0  0
 28 29  1  0  0  0
 29 30  2  0  0  0
 30 31  1  0  0  0
  6  7  1  0  0  0
  7 10  1  0  0  0
 10 11  1  0  0  0
 10 12  1  0  0  0
  7  8  1  0  0  0
  8  9  2  0  0  0
 18 19  1  0  0  0
 19 20  2  0  0  0
 20 15  1  0  0  0
  9  1  1  0  0  0
  8  4  1  0  0  0
 30 25  1  0  0  0
 13 14  1  0  0  0
 23 24  1  0  0  0
M  END
> <minimizedAffinity>
1.85367

> <CNNscore>
0.2568181157

> <CNNaffinity>
5.4194717407

> <CNN_VS>
1.3918185234

> <CNNaffinity_variance>
0.5121961832

$$$$
[H]c1nc(-c2c([H])c([H])c(OC([H])([H])C([H])([H])C([H])([H])N3C([H])([H])C([H])([H])C([H])(C([H])([H])c4c([H])nc([H])n4[H])C([H])([H])C3([H])[H])c([H])c2[H])nc([H])c1[H]


 29 32  0  0  0  0  0  0  0  0999 V2000
   55.7309   -7.9627   -1.2220 C   0  0  0  0  0  0  0  0  0  0  0  0
   56.8101   -7.4734   -2.1697 C   0  0  0  0  0  0  0  0  0  0  0  0
   56.4944   -7.9448   -3.4436 O   0  0  0  0  0  0  0  0  0  0  0  0
   54.7681   -5.5295   -6.4494 C   0  0  0  0  0  0  0  0  0  0  0  0
   55.6806   -5.0183   -5.5523 C   0  0  0  0  0  0  0  0  0  0  0  0
   56.2516   -5.8125   -4.5598 C   0  0  0  0  0  0  0  0  0  0  0  0
   55.9221   -7.1449   -4.4396 C   0  0  0  0  0  0  0  0  0  0  0  0
   55.0088   -7.6515   -5.3396 C   0  0  0  0  0  0  0  0  0  0  0  0
   54.4373   -6.8618   -6.3310 C   0  0  0  0  0  0  0  0  0  0  0  0
   53.0139   -3.1038   -9.4043 C   0  0  0  0  0  0  0  0  0  0  0  0
   52.3443   -3.4040   -8.2385 C   0  0  0  0  0  0  0  0  0  0  0  0
   52.9421   -4.1833   -7.3201 N   0  0  0  0  0  0  0  0  0  0  0  0
   54.1755   -4.6900   -7.4850 C   0  0  0  0  0  0  0  0  0  0  0  0
   54.8223   -4.3951   -8.6201 N   0  0  0  0  0  0  0  0  0  0  0  0
   54.2738   -3.6142   -9.5859 C   0  0  0  0  0  0  0  0  0  0  0  0
   55.0626   -6.7571   -0.6011 C   0  0  0  0  0  0  0  0  0  0  0  0
   53.6165   -6.8773   -0.5835 N   0  0  0  0  0  0  0  0  0  0  0  0
   53.0742   -5.5402   -0.7345 C   0  0  0  0  0  0  0  0  0  0  0  0
   52.9103   -5.2429   -2.2305 C   0  0  0  0  0  0  0  0  0  0  0  0
   51.7114   -6.0380   -2.6807 C   0  0  0  0  0  0  0  0  0  0  0  0
   51.8524   -7.4406   -2.1949 C   0  0  0  0  0  0  0  0  0  0  0  0
   53.2416   -7.7412   -1.6830 C   0  0  0  0  0  0  0  0  0  0  0  0
   51.4959   -5.9460   -4.1729 C   0  0  0  0  0  0  0  0  0  0  0  0
   50.5131   -4.8764   -4.4371 C   0  0  0  0  0  0  0  0  0  0  0  0
   49.5778   -4.3494   -3.5870 C   0  0  0  0  0  0  0  0  0  0  0  0
   48.8964   -3.4033   -4.2288 N   0  0  0  0  0  0  0  0  0  0  0  0
   49.3805   -3.3179   -5.4721 C   0  0  0  0  0  0  0  0  0  0  0  0
   50.3644   -4.2169   -5.5932 N   0  0  0  0  0  0  0  0  0  0  0  0
   50.9333   -4.3762   -6.4718 H   0  0  0  0  0  0  0  0  0  0  0  0
 10 11  2  0  0  0
 11 12  1  0  0  0
 12 13  2  0  0  0
 13  4  1  0  0  0
  4  5  2  0  0  0
  5  6  1  0  0  0
  6  7  2  0  0  0
  7  3  1  0  0  0
  3  2  1  0  0  0
  2  1  1  0  0  0
  1 16  1  0  0  0
 16 17  1  0  0  0
 17 18  1  0  0  0
 18 19  1  0  0  0
 19 20  1  0  0  0
 20 23  1  0  0  0
 23 24  1  0  0  0
 24 25  2  0  0  0
 25 26  1  0  0  0
 26 27  2  0  0  0
 27 28  1  0  0  0
 20 21  1  0  0  0
 21 22  1  0  0  0
  7  8  1  0  0  0
  8  9  2  0  0  0
 13 14  1  0  0  0
 14 15  2  0  0  0
 15 10  1  0  0  0
  9  4  1  0  0  0
 22 17  1  0  0  0
 28 24  1  0  0  0
 28 29  1  0  0  0
M  END
> <minimizedAffinity>
-7.52091

> <CNNscore>
0.2852376401

> <CNNaffinity>
6.7585968971

> <CNN_VS>
1.9278062582

> <CNNaffinity_variance>
0.2883487642

$$$$
[H]c1nc(-c2c([H])c([H])c(OC([H])([H])C([H])([H])C([H])([H])N3C([H])([H])C([H])([H])C([H])(C([H])([H])c4c([H])nc([H])n4[H])C([H])([H])C3([H])[H])c([H])c2[H])nc([H])c1[H]


 29 32  0  0  0  0  0  0  0  0999 V2000
   53.3014   -3.3014   -8.5154 C   0  0  0  0  0  0  0  0  0  0  0  0
   54.6876   -2.7688   -8.8268 C   0  0  0  0  0  0  0  0  0  0  0  0
   55.2304   -3.5729   -9.8285 O   0  0  0  0  0  0  0  0  0  0  0  0
   58.8876   -5.6466   -9.4122 C   0  0  0  0  0  0  0  0  0  0  0  0
   58.1168   -5.3216   -8.3172 C   0  0  0  0  0  0  0  0  0  0  0  0
   56.9101   -4.6376   -8.4514 C   0  0  0  0  0  0  0  0  0  0  0  0
   56.4422   -4.2599   -9.6911 C   0  0  0  0  0  0  0  0  0  0  0  0
   57.2170   -4.5876  -10.7834 C   0  0  0  0  0  0  0  0  0  0  0  0
   58.4214   -5.2699  -10.6528 C   0  0  0  0  0  0  0  0  0  0  0  0
   62.5367   -7.6826   -8.9315 C   0  0  0  0  0  0  0  0  0  0  0  0
   62.1315   -6.7233   -8.0297 C   0  0  0  0  0  0  0  0  0  0  0  0
   60.9574   -6.0966   -8.2213 N   0  0  0  0  0  0  0  0  0  0  0  0
   60.1497   -6.3628   -9.2615 C   0  0  0  0  0  0  0  0  0  0  0  0
   60.5482   -7.2962  -10.1353 N   0  0  0  0  0  0  0  0  0  0  0  0
   61.7220   -7.9646   -9.9982 C   0  0  0  0  0  0  0  0  0  0  0  0
   53.4498   -4.5371   -7.6572 C   0  0  0  0  0  0  0  0  0  0  0  0
   52.1859   -5.2203   -7.4525 N   0  0  0  0  0  0  0  0  0  0  0  0
   52.4122   -6.2484   -6.4542 C   0  0  0  0  0  0  0  0  0  0  0  0
   52.1725   -5.6446   -5.0646 C   0  0  0  0  0  0  0  0  0  0  0  0
   50.6778   -5.5045   -4.9272 C   0  0  0  0  0  0  0  0  0  0  0  0
   50.1413   -4.8387   -6.1487 C   0  0  0  0  0  0  0  0  0  0  0  0
   51.2282   -4.2314   -7.0043 C   0  0  0  0  0  0  0  0  0  0  0  0
   50.2878   -4.8013   -3.6486 C   0  0  0  0  0  0  0  0  0  0  0  0
   49.0475   -4.0394   -3.8951 C   0  0  0  0  0  0  0  0  0  0  0  0
   48.8961   -2.8457   -4.5488 C   0  0  0  0  0  0  0  0  0  0  0  0
   47.6077   -2.5124   -4.5452 N   0  0  0  0  0  0  0  0  0  0  0  0
   46.9353   -3.4720   -3.9013 C   0  0  0  0  0  0  0  0  0  0  0  0
   47.8169   -4.3989   -3.5077 N   0  0  0  0  0  0  0  0  0  0  0  0
   47.5711   -5.2788   -2.9727 H   0  0  0  0  0  0  0  0  0  0  0  0
 10 11  2  0  0  0
 11 12  1  0  0  0
 12 13  2  0  0  0
 13  4  1  0  0  0
  4  5  2  0  0  0
  5  6  1  0  0  0
  6  7  2  0  0  0
  7  3  1  0  0  0
  3  2  1  0  0  0
  2  1  1  0  0  0
  1 16  1  0  0  0
 16 17  1  0  0  0
 17 18  1  0  0  0
 18 19  1  0  0  0
 19 20  1  0  0  0
 20 23  1  0  0  0
 23 24  1  0  0  0
 24 25  2  0  0  0
 25 26  1  0  0  0
 26 27  2  0  0  0
 27 28  1  0  0  0
 20 21  1  0  0  0
 21 22  1  0  0  0
  7  8  1  0  0  0
  8  9  2  0  0  0
 13 14  1  0  0  0
 14 15  2  0  0  0
 15 10  1  0  0  0
  9  4  1  0  0  0
 22 17  1  0  0  0
 28 24  1  0  0  0
 28 29  1  0  0  0
M  END
> <minimizedAffinity>
-8.11156

> <CNNscore>
0.2386249453

> <CNNaffinity>
6.0916824341

> <CNN_VS>
1.4536273479

> <CNNaffinity_variance>
0.2488470823

$$$$
[H]c1nc(-c2c([H])c([H])c(OC([H])([H])C([H])([H])C([H])([H])N3C([H])([H])C([H])([H])C([H])(C([H])([H])c4c([H])nc([H])n4[H])C([H])([H])C3([H])[H])c([H])c2[H])nc([H])c1[H]


 29 32  0  0  0  0  0  0  0  0999 V2000
   60.8318   -6.3291   -8.8046 C   0  0  0  0  0  0  0  0  0  0  0  0
   59.5710   -6.5882   -9.6079 C   0  0  0  0  0  0  0  0  0  0  0  0
   59.0373   -5.3494   -9.9617 O   0  0  0  0  0  0  0  0  0  0  0  0
   55.1546   -4.0953   -8.8660 C   0  0  0  0  0  0  0  0  0  0  0  0
   55.5736   -4.0729  -10.1785 C   0  0  0  0  0  0  0  0  0  0  0  0
   56.8537   -4.4859  -10.5429 C   0  0  0  0  0  0  0  0  0  0  0  0
   57.7510   -4.9339   -9.5982 C   0  0  0  0  0  0  0  0  0  0  0  0
   57.3268   -4.9545   -8.2865 C   0  0  0  0  0  0  0  0  0  0  0  0
   56.0504   -4.5431   -7.9197 C   0  0  0  0  0  0  0  0  0  0  0  0
   51.2810   -2.8856   -7.7593 C   0  0  0  0  0  0  0  0  0  0  0  0
   51.8630   -4.0057   -7.2075 C   0  0  0  0  0  0  0  0  0  0  0  0
   53.1034   -4.3567   -7.5897 N   0  0  0  0  0  0  0  0  0  0  0  0
   53.8124   -3.6608   -8.4942 C   0  0  0  0  0  0  0  0  0  0  0  0
   53.2422   -2.5727   -9.0277 N   0  0  0  0  0  0  0  0  0  0  0  0
   51.9934   -2.1655   -8.6840 C   0  0  0  0  0  0  0  0  0  0  0  0
   62.0103   -6.8647   -9.5856 C   0  0  0  0  0  0  0  0  0  0  0  0
   62.8185   -7.7816   -8.8032 N   0  0  0  0  0  0  0  0  0  0  0  0
   63.0507   -7.1551   -7.5155 C   0  0  0  0  0  0  0  0  0  0  0  0
   61.9089   -7.5435   -6.5675 C   0  0  0  0  0  0  0  0  0  0  0  0
   62.1615   -8.9789   -6.1827 C   0  0  0  0  0  0  0  0  0  0  0  0
   62.4268   -9.7702   -7.4183 C   0  0  0  0  0  0  0  0  0  0  0  0
   62.0724   -9.0160   -8.6785 C   0  0  0  0  0  0  0  0  0  0  0  0
   61.0424   -9.5478   -5.3429 C   0  0  0  0  0  0  0  0  0  0  0  0
   60.7893   -8.6265   -4.2173 C   0  0  0  0  0  0  0  0  0  0  0  0
   61.6323   -8.2760   -3.1967 C   0  0  0  0  0  0  0  0  0  0  0  0
   61.0057   -7.4181   -2.3951 N   0  0  0  0  0  0  0  0  0  0  0  0
   59.7788   -7.2156   -2.8864 C   0  0  0  0  0  0  0  0  0  0  0  0
   59.6527   -7.9537   -3.9956 N   0  0  0  0  0  0  0  0  0  0  0  0
   58.7842   -7.9940   -4.5998 H   0  0  0  0  0  0  0  0  0  0  0  0
 10 11  2  0  0  0
 11 12  1  0  0  0
 12 13  2  0  0  0
 13  4  1  0  0  0
  4  5  2  0  0  0
  5  6  1  0  0  0
  6  7  2  0  0  0
  7  3  1  0  0  0
  3  2  1  0  0  0
  2  1  1  0  0  0
  1 16  1  0  0  0
 16 17  1  0  0  0
 17 18  1  0  0  0
 18 19  1  0  0  0
 19 20  1  0  0  0
 20 23  1  0  0  0
 23 24  1  0  0  0
 24 25  2  0  0  0
 25 26  1  0  0  0
 26 27  2  0  0  0
 27 28  1  0  0  0
 20 21  1  0  0  0
 21 22  1  0  0  0
  7  8  1  0  0  0
  8  9  2  0  0  0
 13 14  1  0  0  0
 14 15  2  0  0  0
 15 10  1  0  0  0
  9  4  1  0  0  0
 22 17  1  0  0  0
 28 24  1  0  0  0
 28 29  1  0  0  0
M  END
> <minimizedAffinity>
-7.03622

> <CNNscore>
0.2343544215

> <CNNaffinity>
5.7362623215

> <CNN_VS>
1.3443183899

> <CNNaffinity_variance>
0.0539066307

$$$$
[H]c1nc(-c2c([H])c([H])c(OC([H])([H])C([H])([H])C([H])([H])N3C([H])([H])C([H])([H])C([H])(C([H])([H])c4c([H])nc([H])n4[H])C([H])([H])C3([H])[H])c([H])c2[H])nc([H])c1[H]


 29 32  0  0  0  0  0  0  0  0999 V2000
   55.1873   -7.3844   -4.1132 C   0  0  0  0  0  0  0  0  0  0  0  0
   56.3373   -6.6788   -4.8073 C   0  0  0  0  0  0  0  0  0  0  0  0
   55.8109   -5.5695   -5.4683 O   0  0  0  0  0  0  0  0  0  0  0  0
   56.6832   -4.6356   -9.4952 C   0  0  0  0  0  0  0  0  0  0  0  0
   55.4400   -4.3910   -8.9536 C   0  0  0  0  0  0  0  0  0  0  0  0
   55.1493   -4.6980   -7.6257 C   0  0  0  0  0  0  0  0  0  0  0  0
   56.1004   -5.2603   -6.8024 C   0  0  0  0  0  0  0  0  0  0  0  0
   57.3426   -5.5029   -7.3491 C   0  0  0  0  0  0  0  0  0  0  0  0
   57.6357   -5.1978   -8.6735 C   0  0  0  0  0  0  0  0  0  0  0  0
   57.5874   -3.7023  -13.4957 C   0  0  0  0  0  0  0  0  0  0  0  0
   58.5853   -3.9315  -12.5741 C   0  0  0  0  0  0  0  0  0  0  0  0
   58.2519   -4.2270  -11.3054 N   0  0  0  0  0  0  0  0  0  0  0  0
   56.9780   -4.3108  -10.8866 C   0  0  0  0  0  0  0  0  0  0  0  0
   56.0116   -4.0870  -11.7864 N   0  0  0  0  0  0  0  0  0  0  0  0
   56.2823   -3.7845  -13.0820 C   0  0  0  0  0  0  0  0  0  0  0  0
   55.3026   -7.1307   -2.6273 C   0  0  0  0  0  0  0  0  0  0  0  0
   54.0175   -6.8466   -2.0159 N   0  0  0  0  0  0  0  0  0  0  0  0
   53.7209   -5.4499   -2.2729 C   0  0  0  0  0  0  0  0  0  0  0  0
   52.9729   -5.3444   -3.6080 C   0  0  0  0  0  0  0  0  0  0  0  0
   51.5746   -5.8387   -3.3383 C   0  0  0  0  0  0  0  0  0  0  0  0
   51.6540   -7.1381   -2.6115 C   0  0  0  0  0  0  0  0  0  0  0  0
   53.0447   -7.7281   -2.6262 C   0  0  0  0  0  0  0  0  0  0  0  0
   50.7451   -5.9136   -4.5983 C   0  0  0  0  0  0  0  0  0  0  0  0
   49.9998   -4.6472   -4.7420 C   0  0  0  0  0  0  0  0  0  0  0  0
   49.2302   -4.0010   -3.8117 C   0  0  0  0  0  0  0  0  0  0  0  0
   48.7385   -2.8902   -4.3555 N   0  0  0  0  0  0  0  0  0  0  0  0
   49.1807   -2.8170   -5.6151 C   0  0  0  0  0  0  0  0  0  0  0  0
   49.9480   -3.8892   -5.8448 N   0  0  0  0  0  0  0  0  0  0  0  0
   50.4358   -4.0987   -6.7608 H   0  0  0  0  0  0  0  0  0  0  0  0
 10 11  2  0  0  0
 11 12  1  0  0  0
 12 13  2  0  0  0
 13  4  1  0  0  0
  4  5  2  0  0  0
  5  6  1  0  0  0
  6  7  2  0  0  0
  7  3  1  0  0  0
  3  2  1  0  0  0
  2  1  1  0  0  0
  1 16  1  0  0  0
 16 17  1  0  0  0
 17 18  1  0  0  0
 18 19  1  0  0  0
 19 20  1  0  0  0
 20 23  1  0  0  0
 23 24  1  0  0  0
 24 25  2  0  0  0
 25 26  1  0  0  0
 26 27  2  0  0  0
 27 28  1  0  0  0
 20 21  1  0  0  0
 21 22  1  0  0  0
  7  8  1  0  0  0
  8  9  2  0  0  0
 13 14  1  0  0  0
 14 15  2  0  0  0
 15 10  1  0  0  0
  9  4  1  0  0  0
 22 17  1  0  0  0
 28 24  1  0  0  0
 28 29  1  0  0  0
M  END
> <minimizedAffinity>
-7.77135

> <CNNscore>
0.2172208130

> <CNNaffinity>
6.5833449364

> <CNN_VS>
1.4300395250

> <CNNaffinity_variance>
0.0434399396

$$$$
[H]c1nc(-c2c([H])c([H])c(OC([H])([H])C([H])([H])C([H])([H])N3C([H])([H])C([H])([H])C([H])(C([H])([H])c4c([H])nc([H])n4[H])C([H])([H])C3([H])[H])c([H])c2[H])nc([H])c1[H]


 29 32  0  0  0  0  0  0  0  0999 V2000
   59.4810   -6.1618   -9.4442 C   0  0  0  0  0  0  0  0  0  0  0  0
   58.5073   -5.3094   -8.6521 C   0  0  0  0  0  0  0  0  0  0  0  0
   57.4335   -5.0109   -9.4903 O   0  0  0  0  0  0  0  0  0  0  0  0
   53.5653   -4.0858   -8.0654 C   0  0  0  0  0  0  0  0  0  0  0  0
   54.4804   -4.7525   -7.2799 C   0  0  0  0  0  0  0  0  0  0  0  0
   55.7570   -5.0590   -7.7472 C   0  0  0  0  0  0  0  0  0  0  0  0
   56.1518   -4.7042   -9.0187 C   0  0  0  0  0  0  0  0  0  0  0  0
   55.2326   -4.0373   -9.8004 C   0  0  0  0  0  0  0  0  0  0  0  0
   53.9582   -3.7300   -9.3372 C   0  0  0  0  0  0  0  0  0  0  0  0
   49.7199   -3.1255   -6.6572 C   0  0  0  0  0  0  0  0  0  0  0  0
   50.4071   -2.2719   -7.4920 C   0  0  0  0  0  0  0  0  0  0  0  0
   51.6343   -2.6181   -7.9188 N   0  0  0  0  0  0  0  0  0  0  0  0
   52.2311   -3.7694   -7.5673 C   0  0  0  0  0  0  0  0  0  0  0  0
   51.5588   -4.5958   -6.7557 N   0  0  0  0  0  0  0  0  0  0  0  0
   50.3170   -4.3045   -6.2903 C   0  0  0  0  0  0  0  0  0  0  0  0
   60.8482   -6.0318   -8.8121 C   0  0  0  0  0  0  0  0  0  0  0  0
   61.7388   -7.1100   -9.1998 N   0  0  0  0  0  0  0  0  0  0  0  0
   62.5048   -7.4760   -8.0234 C   0  0  0  0  0  0  0  0  0  0  0  0
   61.7333   -8.5534   -7.2507 C   0  0  0  0  0  0  0  0  0  0  0  0
   61.8935   -9.8252   -8.0440 C   0  0  0  0  0  0  0  0  0  0  0  0
   61.5808   -9.5442   -9.4745 C   0  0  0  0  0  0  0  0  0  0  0  0
   60.9143   -8.2028   -9.6709 C   0  0  0  0  0  0  0  0  0  0  0  0
   61.0778  -10.9597   -7.4703 C   0  0  0  0  0  0  0  0  0  0  0  0
   62.0004  -11.9271   -6.8438 C   0  0  0  0  0  0  0  0  0  0  0  0
   61.7833  -13.2481   -6.5554 C   0  0  0  0  0  0  0  0  0  0  0  0
   62.8789  -13.7524   -5.9928 N   0  0  0  0  0  0  0  0  0  0  0  0
   63.7901  -12.7769   -5.9175 C   0  0  0  0  0  0  0  0  0  0  0  0
   63.2498  -11.6681   -6.4370 N   0  0  0  0  0  0  0  0  0  0  0  0
   63.7414  -10.7334   -6.5113 H   0  0  0  0  0  0  0  0  0  0  0  0
 10 11  2  0  0  0
 11 12  1  0  0  0
 12 13  2  0  0  0
 13  4  1  0  0  0
  4  5  2  0  0  0
  5  6  1  0  0  0
  6  7  2  0  0  0
  7  3  1  0  0  0
  3  2  1  0  0  0
  2  1  1  0  0  0
  1 16  1  0  0  0
 16 17  1  0  0  0
 17 18  1  0  0  0
 18 19  1  0  0  0
 19 20  1  0  0  0
 20 23  1  0  0  0
 23 24  1  0  0  0
 24 25  2  0  0  0
 25 26  1  0  0  0
 26 27  2  0  0  0
 27 28  1  0  0  0
 20 21  1  0  0  0
 21 22  1  0  0  0
  7  8  1  0  0  0
  8  9  2  0  0  0
 13 14  1  0  0  0
 14 15  2  0  0  0
 15 10  1  0  0  0
  9  4  1  0  0  0
 22 17  1  0  0  0
 28 24  1  0  0  0
 28 29  1  0  0  0
M  END
> <minimizedAffinity>
-6.96641

> <CNNscore>
0.2141256928

> <CNNaffinity>
5.6876840591

> <CNN_VS>
1.2178792953

> <CNNaffinity_variance>
0.0693593398

$$$$
[H]c1nc(-c2c([H])c([H])c(OC([H])([H])C([H])([H])C([H])([H])N3C([H])([H])C([H])([H])C([H])(C([H])([H])c4c([H])nc([H])n4[H])C([H])([H])C3([H])[H])c([H])c2[H])nc([H])c1[H]


 29 32  0  0  0  0  0  0  0  0999 V2000
   59.1565   -5.6645   -9.7848 C   0  0  0  0  0  0  0  0  0  0  0  0
   58.0906   -5.1538   -8.8334 C   0  0  0  0  0  0  0  0  0  0  0  0
   56.9472   -4.8908   -9.5872 O   0  0  0  0  0  0  0  0  0  0  0  0
   53.1946   -3.9796   -7.8735 C   0  0  0  0  0  0  0  0  0  0  0  0
   53.5641   -3.4789   -9.1029 C   0  0  0  0  0  0  0  0  0  0  0  0
   54.8012   -3.7777   -9.6706 C   0  0  0  0  0  0  0  0  0  0  0  0
   55.7040   -4.5892   -9.0190 C   0  0  0  0  0  0  0  0  0  0  0  0
   55.3295   -5.0876   -7.7893 C   0  0  0  0  0  0  0  0  0  0  0  0
   54.0961   -4.7914   -7.2201 C   0  0  0  0  0  0  0  0  0  0  0  0
   49.4497   -3.0176   -6.2173 C   0  0  0  0  0  0  0  0  0  0  0  0
   49.9982   -2.2592   -7.2281 C   0  0  0  0  0  0  0  0  0  0  0  0
   51.1980   -2.6022   -7.7290 N   0  0  0  0  0  0  0  0  0  0  0  0
   51.8973   -3.6611   -7.2872 C   0  0  0  0  0  0  0  0  0  0  0  0
   51.3596   -4.3951   -6.3044 N   0  0  0  0  0  0  0  0  0  0  0  0
   50.1526   -4.1015   -5.7566 C   0  0  0  0  0  0  0  0  0  0  0  0
   59.8708   -6.8198   -9.1210 C   0  0  0  0  0  0  0  0  0  0  0  0
   61.3130   -6.6598   -9.1402 N   0  0  0  0  0  0  0  0  0  0  0  0
   61.8874   -7.8975   -8.6472 C   0  0  0  0  0  0  0  0  0  0  0  0
   62.0982   -8.8475   -9.8330 C   0  0  0  0  0  0  0  0  0  0  0  0
   63.2919   -8.3135  -10.5830 C   0  0  0  0  0  0  0  0  0  0  0  0
   63.1080   -6.8505  -10.8038 C   0  0  0  0  0  0  0  0  0  0  0  0
   61.6993   -6.3909  -10.5093 C   0  0  0  0  0  0  0  0  0  0  0  0
   63.5498   -9.0783  -11.8597 C   0  0  0  0  0  0  0  0  0  0  0  0
   64.3563  -10.2712  -11.5339 C   0  0  0  0  0  0  0  0  0  0  0  0
   64.4185  -11.4660  -12.2002 C   0  0  0  0  0  0  0  0  0  0  0  0
   65.2714  -12.2684  -11.5679 N   0  0  0  0  0  0  0  0  0  0  0  0
   65.7538  -11.6068  -10.5110 C   0  0  0  0  0  0  0  0  0  0  0  0
   65.1933  -10.3916  -10.4954 N   0  0  0  0  0  0  0  0  0  0  0  0
   65.3871   -9.6455   -9.7697 H   0  0  0  0  0  0  0  0  0  0  0  0
 10 11  2  0  0  0
 11 12  1  0  0  0
 12 13  2  0  0  0
 13  4  1  0  0  0
  4  5  2  0  0  0
  5  6  1  0  0  0
  6  7  2  0  0  0
  7  3  1  0  0  0
  3  2  1  0  0  0
  2  1  1  0  0  0
  1 16  1  0  0  0
 16 17  1  0  0  0
 17 18  1  0  0  0
 18 19  1  0  0  0
 19 20  1  0  0  0
 20 23  1  0  0  0
 23 24  1  0  0  0
 24 25  2  0  0  0
 25 26  1  0  0  0
 26 27  2  0  0  0
 27 28  1  0  0  0
 20 21  1  0  0  0
 21 22  1  0  0  0
  7  8  1  0  0  0
  8  9  2  0  0  0
 13 14  1  0  0  0
 14 15  2  0  0  0
 15 10  1  0  0  0
  9  4  1  0  0  0
 22 17  1  0  0  0
 28 24  1  0  0  0
 28 29  1  0  0  0
M  END
> <minimizedAffinity>
-6.51331

> <CNNscore>
0.1754774153

> <CNNaffinity>
5.3499865532

> <CNN_VS>
0.9388018250

> <CNNaffinity_variance>
0.1202790886

$$$$
[H]c1nc(-c2c([H])c([H])c(OC([H])([H])C([H])([H])C([H])([H])N3C([H])([H])C([H])([H])C([H])(C([H])([H])c4c([H])nc([H])n4[H])C([H])([H])C3([H])[H])c([H])c2[H])nc([H])c1[H]


 29 32  0  0  0  0  0  0  0  0999 V2000
   59.1647   -5.5213   -9.8244 C   0  0  0  0  0  0  0  0  0  0  0  0
   57.9450   -5.5050   -8.9223 C   0  0  0  0  0  0  0  0  0  0  0  0
   56.9338   -4.8213   -9.5967 O   0  0  0  0  0  0  0  0  0  0  0  0
   53.1709   -3.9604   -7.8796 C   0  0  0  0  0  0  0  0  0  0  0  0
   54.1255   -4.6810   -7.1952 C   0  0  0  0  0  0  0  0  0  0  0  0
   55.3675   -4.9665   -7.7591 C   0  0  0  0  0  0  0  0  0  0  0  0
   55.6870   -4.5358   -9.0282 C   0  0  0  0  0  0  0  0  0  0  0  0
   54.7285   -3.8153   -9.7087 C   0  0  0  0  0  0  0  0  0  0  0  0
   53.4884   -3.5288   -9.1490 C   0  0  0  0  0  0  0  0  0  0  0  0
   49.4350   -3.1582   -6.1213 C   0  0  0  0  0  0  0  0  0  0  0  0
   50.1850   -4.2476   -5.7361 C   0  0  0  0  0  0  0  0  0  0  0  0
   51.3740   -4.4670   -6.3243 N   0  0  0  0  0  0  0  0  0  0  0  0
   51.8734   -3.6666   -7.2810 C   0  0  0  0  0  0  0  0  0  0  0  0
   51.1404   -2.6089   -7.6518 N   0  0  0  0  0  0  0  0  0  0  0  0
   49.9325   -2.3325   -7.0969 C   0  0  0  0  0  0  0  0  0  0  0  0
   59.9583   -6.7732   -9.5266 C   0  0  0  0  0  0  0  0  0  0  0  0
   61.3743   -6.5013   -9.3616 N   0  0  0  0  0  0  0  0  0  0  0  0
   61.7096   -6.8017   -7.9825 C   0  0  0  0  0  0  0  0  0  0  0  0
   62.1057   -8.2804   -7.8845 C   0  0  0  0  0  0  0  0  0  0  0  0
   63.4820   -8.3806   -8.4912 C   0  0  0  0  0  0  0  0  0  0  0  0
   63.4817   -7.6789   -9.8067 C   0  0  0  0  0  0  0  0  0  0  0  0
   62.0883   -7.3518  -10.2904 C   0  0  0  0  0  0  0  0  0  0  0  0
   63.9608   -9.8103   -8.5817 C   0  0  0  0  0  0  0  0  0  0  0  0
   64.6805  -10.1409   -7.3357 C   0  0  0  0  0  0  0  0  0  0  0  0
   65.1642  -11.3552   -6.9274 C   0  0  0  0  0  0  0  0  0  0  0  0
   65.7470  -11.2100   -5.7398 N   0  0  0  0  0  0  0  0  0  0  0  0
   65.6435   -9.9254   -5.3840 C   0  0  0  0  0  0  0  0  0  0  0  0
   64.9933   -9.2794   -6.3593 N   0  0  0  0  0  0  0  0  0  0  0  0
   64.7653   -8.2455   -6.3524 H   0  0  0  0  0  0  0  0  0  0  0  0
 10 11  2  0  0  0
 11 12  1  0  0  0
 12 13  2  0  0  0
 13  4  1  0  0  0
  4  5  2  0  0  0
  5  6  1  0  0  0
  6  7  2  0  0  0
  7  3  1  0  0  0
  3  2  1  0  0  0
  2  1  1  0  0  0
  1 16  1  0  0  0
 16 17  1  0  0  0
 17 18  1  0  0  0
 18 19  1  0  0  0
 19 20  1  0  0  0
 20 23  1  0  0  0
 23 24  1  0  0  0
 24 25  2  0  0  0
 25 26  1  0  0  0
 26 27  2  0  0  0
 27 28  1  0  0  0
 20 21  1  0  0  0
 21 22  1  0  0  0
  7  8  1  0  0  0
  8  9  2  0  0  0
 13 14  1  0  0  0
 14 15  2  0  0  0
 15 10  1  0  0  0
  9  4  1  0  0  0
 22 17  1  0  0  0
 28 24  1  0  0  0
 28 29  1  0  0  0
M  END
> <minimizedAffinity>
-6.55021

> <CNNscore>
0.1703627259

> <CNNaffinity>
5.4190044403

> <CNN_VS>
0.9231963754

> <CNNaffinity_variance>
0.0722606629

$$$$
[H]c1nc(-c2c([H])c([H])c(OC([H])([H])C([H])([H])C([H])([H])N3C([H])([H])C([H])([H])C([H])(C([H])([H])c4c([H])nc([H])n4[H])C([H])([H])C3([H])[H])c([H])c2[H])nc([H])c1[H]


 29 32  0  0  0  0  0  0  0  0999 V2000
   53.0085   -4.4059   -8.3504 C   0  0  0  0  0  0  0  0  0  0  0  0
   54.1203   -3.3931   -8.5509 C   0  0  0  0  0  0  0  0  0  0  0  0
   54.8463   -3.7848   -9.6753 O   0  0  0  0  0  0  0  0  0  0  0  0
   58.7216   -5.4549   -9.4715 C   0  0  0  0  0  0  0  0  0  0  0  0
   58.1706   -5.0615  -10.6717 C   0  0  0  0  0  0  0  0  0  0  0  0
   56.8926   -4.5103  -10.7419 C   0  0  0  0  0  0  0  0  0  0  0  0
   56.1302   -4.3382   -9.6073 C   0  0  0  0  0  0  0  0  0  0  0  0
   56.6862   -4.7333   -8.4091 C   0  0  0  0  0  0  0  0  0  0  0  0
   57.9609   -5.2836   -8.3356 C   0  0  0  0  0  0  0  0  0  0  0  0
   62.5780   -7.1174   -9.2330 C   0  0  0  0  0  0  0  0  0  0  0  0
   61.8396   -6.8639   -8.0981 C   0  0  0  0  0  0  0  0  0  0  0  0
   60.6108   -6.3317   -8.2197 N   0  0  0  0  0  0  0  0  0  0  0  0
   60.0604   -6.0311   -9.4080 C   0  0  0  0  0  0  0  0  0  0  0  0
   60.7824   -6.2795  -10.5083 N   0  0  0  0  0  0  0  0  0  0  0  0
   62.0286   -6.8155  -10.4529 C   0  0  0  0  0  0  0  0  0  0  0  0
   51.9492   -3.7797   -7.4720 C   0  0  0  0  0  0  0  0  0  0  0  0
   51.0679   -4.7699   -6.8813 N   0  0  0  0  0  0  0  0  0  0  0  0
   51.8998   -5.8724   -6.4372 C   0  0  0  0  0  0  0  0  0  0  0  0
   52.3547   -5.5958   -4.9986 C   0  0  0  0  0  0  0  0  0  0  0  0
   51.1483   -5.8429   -4.1291 C   0  0  0  0  0  0  0  0  0  0  0  0
   49.9795   -5.1216   -4.7093 C   0  0  0  0  0  0  0  0  0  0  0  0
   50.3796   -4.1323   -5.7787 C   0  0  0  0  0  0  0  0  0  0  0  0
   51.4067   -5.4878   -2.6839 C   0  0  0  0  0  0  0  0  0  0  0  0
   51.5098   -6.7392   -1.9074 C   0  0  0  0  0  0  0  0  0  0  0  0
   52.5310   -7.6514   -1.8926 C   0  0  0  0  0  0  0  0  0  0  0  0
   52.2182   -8.6352   -1.0527 N   0  0  0  0  0  0  0  0  0  0  0  0
   51.0164   -8.3665   -0.5321 C   0  0  0  0  0  0  0  0  0  0  0  0
   50.5901   -7.2112   -1.0560 N   0  0  0  0  0  0  0  0  0  0  0  0
   49.6660   -6.7479   -0.8272 H   0  0  0  0  0  0  0  0  0  0  0  0
 10 11  2  0  0  0
 11 12  1  0  0  0
 12 13  2  0  0  0
 13  4  1  0  0  0
  4  5  2  0  0  0
  5  6  1  0  0  0
  6  7  2  0  0  0
  7  3  1  0  0  0
  3  2  1  0  0  0
  2  1  1  0  0  0
  1 16  1  0  0  0
 16 17  1  0  0  0
 17 18  1  0  0  0
 18 19  1  0  0  0
 19 20  1  0  0  0
 20 23  1  0  0  0
 23 24  1  0  0  0
 24 25  2  0  0  0
 25 26  1  0  0  0
 26 27  2  0  0  0
 27 28  1  0  0  0
 20 21  1  0  0  0
 21 22  1  0  0  0
  7  8  1  0  0  0
  8  9  2  0  0  0
 13 14  1  0  0  0
 14 15  2  0  0  0
 15 10  1  0  0  0
  9  4  1  0  0  0
 22 17  1  0  0  0
 28 24  1  0  0  0
 28 29  1  0  0  0
M  END
> <minimizedAffinity>
-8.52170

> <CNNscore>
0.1500099301

> <CNNaffinity>
5.8942813873

> <CNN_VS>
0.8842007518

> <CNNaffinity_variance>
0.2435857803

$$$$
[H]c1nc(-c2c([H])c([H])c(OC([H])([H])C([H])([H])C([H])([H])N3C([H])([H])C([H])([H])C([H])(C([H])([H])c4c([H])nc([H])n4[H])C([H])([H])C3([H])[H])c([H])c2[H])nc([H])c1[H]


 29 32  0  0  0  0  0  0  0  0999 V2000
   59.3361   -5.7493   -9.1507 C   0  0  0  0  0  0  0  0  0  0  0  0
   58.0559   -5.6556   -9.9596 C   0  0  0  0  0  0  0  0  0  0  0  0
   57.4657   -4.4260   -9.6692 O   0  0  0  0  0  0  0  0  0  0  0  0
   53.5751   -4.0387   -8.0683 C   0  0  0  0  0  0  0  0  0  0  0  0
   53.8375   -3.7672   -9.3936 C   0  0  0  0  0  0  0  0  0  0  0  0
   55.1198   -3.8940   -9.9244 C   0  0  0  0  0  0  0  0  0  0  0  0
   56.1768   -4.2978   -9.1383 C   0  0  0  0  0  0  0  0  0  0  0  0
   55.9090   -4.5683   -7.8132 C   0  0  0  0  0  0  0  0  0  0  0  0
   54.6309   -4.4428   -7.2806 C   0  0  0  0  0  0  0  0  0  0  0  0
   49.6921   -3.5959   -6.5132 C   0  0  0  0  0  0  0  0  0  0  0  0
   50.2956   -2.5814   -7.2234 C   0  0  0  0  0  0  0  0  0  0  0  0
   51.5383   -2.7651   -7.7030 N   0  0  0  0  0  0  0  0  0  0  0  0
   52.2293   -3.9030   -7.5218 C   0  0  0  0  0  0  0  0  0  0  0  0
   51.6382   -4.8861   -6.8307 N   0  0  0  0  0  0  0  0  0  0  0  0
   50.3859   -4.7632   -6.3206 C   0  0  0  0  0  0  0  0  0  0  0  0
   60.4810   -6.0097  -10.1031 C   0  0  0  0  0  0  0  0  0  0  0  0
   61.6351   -6.5807   -9.4337 N   0  0  0  0  0  0  0  0  0  0  0  0
   61.1846   -7.7797   -8.7524 C   0  0  0  0  0  0  0  0  0  0  0  0
   61.3073   -8.9672   -9.7157 C   0  0  0  0  0  0  0  0  0  0  0  0
   62.7794   -9.2805   -9.7999 C   0  0  0  0  0  0  0  0  0  0  0  0
   63.5281   -8.0160  -10.0521 C   0  0  0  0  0  0  0  0  0  0  0  0
   62.6227   -6.8743  -10.4508 C   0  0  0  0  0  0  0  0  0  0  0  0
   63.0743  -10.3573  -10.8172 C   0  0  0  0  0  0  0  0  0  0  0  0
   62.4916  -11.6256  -10.3360 C   0  0  0  0  0  0  0  0  0  0  0  0
   62.7293  -12.2794   -9.1564 C   0  0  0  0  0  0  0  0  0  0  0  0
   61.9955  -13.3892   -9.1231 N   0  0  0  0  0  0  0  0  0  0  0  0
   61.2946  -13.4544  -10.2598 C   0  0  0  0  0  0  0  0  0  0  0  0
   61.6006  -12.3783  -10.9942 N   0  0  0  0  0  0  0  0  0  0  0  0
   61.1959  -12.1623  -11.9484 H   0  0  0  0  0  0  0  0  0  0  0  0
 10 11  2  0  0  0
 11 12  1  0  0  0
 12 13  2  0  0  0
 13  4  1  0  0  0
  4  5  2  0  0  0
  5  6  1  0  0  0
  6  7  2  0  0  0
  7  3  1  0  0  0
  3  2  1  0  0  0
  2  1  1  0  0  0
  1 16  1  0  0  0
 16 17  1  0  0  0
 17 18  1  0  0  0
 18 19  1  0  0  0
 19 20  1  0  0  0
 20 23  1  0  0  0
 23 24  1  0  0  0
 24 25  2  0  0  0
 25 26  1  0  0  0
 26 27  2  0  0  0
 27 28  1  0  0  0
 20 21  1  0  0  0
 21 22  1  0  0  0
  7  8  1  0  0  0
  8  9  2  0  0  0
 13 14  1  0  0  0
 14 15  2  0  0  0
 15 10  1  0  0  0
  9  4  1  0  0  0
 22 17  1  0  0  0
 28 24  1  0  0  0
 28 29  1  0  0  0
M  END
> <minimizedAffinity>
-6.87396

> <CNNscore>
0.1469363570

> <CNNaffinity>
5.4211854935

> <CNN_VS>
0.7965692282

> <CNNaffinity_variance>
0.0368374772

$$$$
[H]OC(=O)[C@]1([H])N([H])[C@@]([H])(C([H])([H])C([H])([H])c2c([H])c([H])c([H])c([H])c2[H])C(=O)N([H])[C@]([H])(C(=O)N([H])C([H])([H])[H])C([H])([H])C([H])([H])C(=O)OC([H])([H])C([H])([H])N([H])C(=O)C([H])([H])C1([H])[H]


 39 40  0  0  0  0  0  0  0  0999 V2000
   63.6729   -6.9239   -7.7353 C   0  0  0  0  0  0  0  0  0  0  0  0
   63.3580   -7.2930   -6.3231 C   0  0  0  0  0  0  0  0  0  0  0  0
   63.8491   -6.3810   -5.2544 C   0  0  0  0  0  0  0  0  0  0  0  0
   64.3777   -7.1867   -4.0932 C   0  0  0  0  0  0  0  0  0  0  0  0
   65.6428   -7.3692   -4.0675 O   0  0  0  0  0  0  0  0  0  0  0  0
   63.5947   -7.7103   -3.1058 O   0  0  0  0  0  0  0  0  0  0  0  0
   62.4528   -8.4873   -3.2000 C   0  0  0  0  0  0  0  0  0  0  0  0
   62.7127   -9.9930   -3.1467 C   0  0  0  0  0  0  0  0  0  0  0  0
   61.5616  -10.6664   -3.6816 N   0  0  0  0  0  0  0  0  0  0  0  0
   61.5358  -11.9276   -4.3173 C   0  0  0  0  0  0  0  0  0  0  0  0
   60.6500  -12.7954   -4.0009 O   0  0  0  0  0  0  0  0  0  0  0  0
   62.4975  -12.3592   -5.3776 C   0  0  0  0  0  0  0  0  0  0  0  0
   62.8165  -11.2514   -6.3275 C   0  0  0  0  0  0  0  0  0  0  0  0
   61.9029  -11.1432   -7.5299 C   0  0  0  0  0  0  0  0  0  0  0  0
   62.3815  -10.0731   -8.3558 N   0  0  0  0  0  0  0  0  0  0  0  0
   63.6454  -10.1392   -8.9458 C   0  0  0  0  0  0  0  0  0  0  0  0
   64.6777   -9.1919   -8.4406 C   0  0  0  0  0  0  0  0  0  0  0  0
   65.7549   -9.7499   -8.0273 O   0  0  0  0  0  0  0  0  0  0  0  0
   64.6450   -7.8116   -8.3560 N   0  0  0  0  0  0  0  0  0  0  0  0
   60.6254  -10.1734   -3.5921 H   0  0  0  0  0  0  0  0  0  0  0  0
   61.6026   -9.6421   -8.8482 H   0  0  0  0  0  0  0  0  0  0  0  0
   65.4577   -7.2771   -8.8140 H   0  0  0  0  0  0  0  0  0  0  0  0
   65.7540   -3.7028   -7.8653 C   0  0  0  0  0  0  0  0  0  0  0  0
   65.3719   -5.0870   -7.7478 N   0  0  0  0  0  0  0  0  0  0  0  0
   64.0375   -5.5026   -7.8591 C   0  0  0  0  0  0  0  0  0  0  0  0
   63.1522   -4.6566   -8.0648 O   0  0  0  0  0  0  0  0  0  0  0  0
   66.1115   -5.7992   -7.5743 H   0  0  0  0  0  0  0  0  0  0  0  0
   61.6723  -12.4259   -8.1906 C   0  0  0  0  0  0  0  0  0  0  0  0
   60.6867  -13.1833   -8.0385 O   0  0  0  0  0  0  0  0  0  0  0  0
   62.6640  -12.8574   -9.0907 O   0  0  0  0  0  0  0  0  0  0  0  0
   63.3400  -13.5042   -8.7069 H   0  0  0  0  0  0  0  0  0  0  0  0
   63.6096  -10.0802  -10.4774 C   0  0  0  0  0  0  0  0  0  0  0  0
   64.8851  -10.5654  -11.0769 C   0  0  0  0  0  0  0  0  0  0  0  0
   64.6856  -11.0669  -12.4737 C   0  0  0  0  0  0  0  0  0  0  0  0
   64.3749  -10.2496  -13.5171 C   0  0  0  0  0  0  0  0  0  0  0  0
   64.2178  -10.8340  -14.7681 C   0  0  0  0  0  0  0  0  0  0  0  0
   64.3668  -12.1928  -14.9682 C   0  0  0  0  0  0  0  0  0  0  0  0
   64.6807  -13.0066  -13.9048 C   0  0  0  0  0  0  0  0  0  0  0  0
   64.8348  -12.4215  -12.6694 C   0  0  0  0  0  0  0  0  0  0  0  0
 23 24  1  0  0  0
 24 25  1  0  0  0
 25 26  2  0  0  0
 25  1  1  0  0  0
  1  2  1  0  0  0
  2  3  1  0  0  0
  3  4  1  0  0  0
  4  5  2  0  0  0
  4  6  1  0  0  0
  6  7  1  0  0  0
  7  8  1  0  0  0
  8  9  1  0  0  0
  9 10  1  0  0  0
 10 11  2  0  0  0
 10 12  1  0  0  0
 12 13  1  0  0  0
 13 14  1  0  0  0
 14 28  1  0  0  0
 28 29  2  0  0  0
 28 30  1  0  0  0
 14 15  1  0  0  0
 15 16  1  0  0  0
 16 32  1  0  0  0
 32 33  1  0  0  0
 33 34  1  0  0  0
 34 35  2  0  0  0
 35 36  1  0  0  0
 36 37  2  0  0  0
 37 38  1  0  0  0
 38 39  2  0  0  0
 16 17  1  0  0  0
 17 18  2  0  0  0
 17 19  1  0  0  0
 19  1  1  0  0  0
 39 34  1  0  0  0
 24 27  1  0  0  0
  9 20  1  0  0  0
 30 31  1  0  0  0
 15 21  1  0  0  0
 19 22  1  0  0  0
M  END
> <minimizedAffinity>
-2.14181

> <CNNscore>
0.5333833098

> <CNNaffinity>
4.8040261269

> <CNN_VS>
2.5623874664

> <CNNaffinity_variance>
0.8478935957

$$$$
[H]OC(=O)[C@]1([H])N([H])[C@@]([H])(C([H])([H])C([H])([H])c2c([H])c([H])c([H])c([H])c2[H])C(=O)N([H])[C@]([H])(C(=O)N([H])C([H])([H])[H])C([H])([H])C([H])([H])C(=O)OC([H])([H])C([H])([H])N([H])C(=O)C([H])([H])C1([H])[H]


 39 40  0  0  0  0  0  0  0  0999 V2000
   56.9222   -4.4728   -6.7200 C   0  0  0  0  0  0  0  0  0  0  0  0
   55.7772   -4.1320   -7.6159 C   0  0  0  0  0  0  0  0  0  0  0  0
   54.4095   -4.2114   -7.0343 C   0  0  0  0  0  0  0  0  0  0  0  0
   53.4608   -4.8278   -8.0327 C   0  0  0  0  0  0  0  0  0  0  0  0
   53.2388   -6.0794   -7.8959 O   0  0  0  0  0  0  0  0  0  0  0  0
   52.8517   -4.1348   -9.0382 O   0  0  0  0  0  0  0  0  0  0  0  0
   53.3994   -3.2932   -9.9911 C   0  0  0  0  0  0  0  0  0  0  0  0
   53.7471   -3.9823  -11.3108 C   0  0  0  0  0  0  0  0  0  0  0  0
   54.6771   -3.1485  -12.0212 N   0  0  0  0  0  0  0  0  0  0  0  0
   55.6520   -3.5680  -12.9535 C   0  0  0  0  0  0  0  0  0  0  0  0
   55.7924   -2.9521  -14.0665 O   0  0  0  0  0  0  0  0  0  0  0  0
   56.5785   -4.7228  -12.7451 C   0  0  0  0  0  0  0  0  0  0  0  0
   57.0707   -4.7976  -11.3369 C   0  0  0  0  0  0  0  0  0  0  0  0
   58.3430   -4.0281  -11.0515 C   0  0  0  0  0  0  0  0  0  0  0  0
   58.6989   -4.2523   -9.6806 N   0  0  0  0  0  0  0  0  0  0  0  0
   59.0172   -5.5342   -9.2277 C   0  0  0  0  0  0  0  0  0  0  0  0
   58.0570   -6.1771   -8.2881 C   0  0  0  0  0  0  0  0  0  0  0  0
   57.6229   -7.3205   -8.6708 O   0  0  0  0  0  0  0  0  0  0  0  0
   57.5725   -5.7259   -7.0734 N   0  0  0  0  0  0  0  0  0  0  0  0
   54.6331   -2.1040  -11.8350 H   0  0  0  0  0  0  0  0  0  0  0  0
   59.1853   -3.4380   -9.3126 H   0  0  0  0  0  0  0  0  0  0  0  0
   57.6783   -6.3869   -6.2321 H   0  0  0  0  0  0  0  0  0  0  0  0
   55.9003   -5.5395   -3.1787 C   0  0  0  0  0  0  0  0  0  0  0  0
   56.2750   -5.5760   -4.5695 N   0  0  0  0  0  0  0  0  0  0  0  0
   56.5408   -4.4087   -5.2993 C   0  0  0  0  0  0  0  0  0  0  0  0
   56.4518   -3.3057   -4.7359 O   0  0  0  0  0  0  0  0  0  0  0  0
   56.3496   -6.4991   -5.0456 H   0  0  0  0  0  0  0  0  0  0  0  0
   59.3885   -4.2624  -12.0450 C   0  0  0  0  0  0  0  0  0  0  0  0
   59.4792   -3.7383  -13.1787 O   0  0  0  0  0  0  0  0  0  0  0  0
   60.3988   -5.1759  -11.6919 O   0  0  0  0  0  0  0  0  0  0  0  0
   60.2645   -6.1179  -12.0341 H   0  0  0  0  0  0  0  0  0  0  0  0
   60.4362   -5.6474   -8.6585 C   0  0  0  0  0  0  0  0  0  0  0  0
   61.0732   -6.9450   -9.0220 C   0  0  0  0  0  0  0  0  0  0  0  0
   62.0489   -7.3951   -7.9789 C   0  0  0  0  0  0  0  0  0  0  0  0
   61.9607   -8.6005   -7.3528 C   0  0  0  0  0  0  0  0  0  0  0  0
   62.9290   -8.9056   -6.4037 C   0  0  0  0  0  0  0  0  0  0  0  0
   63.9525   -8.0318   -6.0915 C   0  0  0  0  0  0  0  0  0  0  0  0
   64.0292   -6.8172   -6.7320 C   0  0  0  0  0  0  0  0  0  0  0  0
   63.0675   -6.5218   -7.6702 C   0  0  0  0  0  0  0  0  0  0  0  0
 23 24  1  0  0  0
 24 25  1  0  0  0
 25 26  2  0  0  0
 25  1  1  0  0  0
  1  2  1  0  0  0
  2  3  1  0  0  0
  3  4  1  0  0  0
  4  5  2  0  0  0
  4  6  1  0  0  0
  6  7  1  0  0  0
  7  8  1  0  0  0
  8  9  1  0  0  0
  9 10  1  0  0  0
 10 11  2  0  0  0
 10 12  1  0  0  0
 12 13  1  0  0  0
 13 14  1  0  0  0
 14 28  1  0  0  0
 28 29  2  0  0  0
 28 30  1  0  0  0
 14 15  1  0  0  0
 15 16  1  0  0  0
 16 32  1  0  0  0
 32 33  1  0  0  0
 33 34  1  0  0  0
 34 35  2  0  0  0
 35 36  1  0  0  0
 36 37  2  0  0  0
 37 38  1  0  0  0
 38 39  2  0  0  0
 16 17  1  0  0  0
 17 18  2  0  0  0
 17 19  1  0  0  0
 19  1  1  0  0  0
 39 34  1  0  0  0
 24 27  1  0  0  0
  9 20  1  0  0  0
 30 31  1  0  0  0
 15 21  1  0  0  0
 19 22  1  0  0  0
M  END
> <minimizedAffinity>
7.62972

> <CNNscore>
0.4562717080

> <CNNaffinity>
5.6254291534

> <CNN_VS>
2.5667240620

> <CNNaffinity_variance>
0.1921158582

$$$$
[H]OC(=O)[C@]1([H])N([H])[C@@]([H])(C([H])([H])C([H])([H])c2c([H])c([H])c([H])c([H])c2[H])C(=O)N([H])[C@]([H])(C(=O)N([H])C([H])([H])[H])C([H])([H])C([H])([H])C(=O)OC([H])([H])C([H])([H])N([H])C(=O)C([H])([H])C1([H])[H]


 39 40  0  0  0  0  0  0  0  0999 V2000
   61.5690   -7.7591   -4.3904 C   0  0  0  0  0  0  0  0  0  0  0  0
   60.2124   -7.1553   -4.5477 C   0  0  0  0  0  0  0  0  0  0  0  0
   59.2426   -7.3588   -3.4372 C   0  0  0  0  0  0  0  0  0  0  0  0
   57.8724   -7.6509   -3.9977 C   0  0  0  0  0  0  0  0  0  0  0  0
   57.5489   -8.8854   -4.0722 O   0  0  0  0  0  0  0  0  0  0  0  0
   56.9955   -6.6915   -4.4136 O   0  0  0  0  0  0  0  0  0  0  0  0
   57.1893   -5.6326   -5.2840 C   0  0  0  0  0  0  0  0  0  0  0  0
   56.8171   -5.9375   -6.7352 C   0  0  0  0  0  0  0  0  0  0  0  0
   57.4549   -4.9627   -7.5764 N   0  0  0  0  0  0  0  0  0  0  0  0
   57.8485   -5.1314   -8.9226 C   0  0  0  0  0  0  0  0  0  0  0  0
   57.5775   -4.2348   -9.7948 O   0  0  0  0  0  0  0  0  0  0  0  0
   58.5890   -6.3212   -9.4436 C   0  0  0  0  0  0  0  0  0  0  0  0
   59.6309   -6.7955   -8.4840 C   0  0  0  0  0  0  0  0  0  0  0  0
   60.9985   -6.1668   -8.6468 C   0  0  0  0  0  0  0  0  0  0  0  0
   61.8809   -6.7708   -7.6913 N   0  0  0  0  0  0  0  0  0  0  0  0
   62.1702   -8.1355   -7.7521 C   0  0  0  0  0  0  0  0  0  0  0  0
   61.6344   -8.9897   -6.6559 C   0  0  0  0  0  0  0  0  0  0  0  0
   60.9115   -9.9712   -7.0513 O   0  0  0  0  0  0  0  0  0  0  0  0
   61.8040   -8.8809   -5.2873 N   0  0  0  0  0  0  0  0  0  0  0  0
   57.6532   -4.0099   -7.1516 H   0  0  0  0  0  0  0  0  0  0  0  0
   62.5946   -6.1027   -7.4100 H   0  0  0  0  0  0  0  0  0  0  0  0
   62.1676   -9.7515   -4.7718 H   0  0  0  0  0  0  0  0  0  0  0  0
   61.6571   -9.6007   -1.0253 C   0  0  0  0  0  0  0  0  0  0  0  0
   61.3835   -9.2625   -2.3989 N   0  0  0  0  0  0  0  0  0  0  0  0
   61.8624   -8.0818   -2.9840 C   0  0  0  0  0  0  0  0  0  0  0  0
   62.5437   -7.2984   -2.3029 O   0  0  0  0  0  0  0  0  0  0  0  0
   60.8116   -9.9165   -2.9729 H   0  0  0  0  0  0  0  0  0  0  0  0
   61.4556   -6.1424  -10.0344 C   0  0  0  0  0  0  0  0  0  0  0  0
   62.5706   -6.5158  -10.4652 O   0  0  0  0  0  0  0  0  0  0  0  0
   60.5482   -5.6436  -10.9872 O   0  0  0  0  0  0  0  0  0  0  0  0
   60.6740   -4.6704  -11.2314 H   0  0  0  0  0  0  0  0  0  0  0  0
   63.6607   -8.4370   -7.9472 C   0  0  0  0  0  0  0  0  0  0  0  0
   63.8982   -9.2823   -9.1517 C   0  0  0  0  0  0  0  0  0  0  0  0
   64.0078  -10.7332   -8.7978 C   0  0  0  0  0  0  0  0  0  0  0  0
   63.1400  -11.6757   -9.2579 C   0  0  0  0  0  0  0  0  0  0  0  0
   63.3482  -12.9912   -8.8610 C   0  0  0  0  0  0  0  0  0  0  0  0
   64.3915  -13.3515   -8.0301 C   0  0  0  0  0  0  0  0  0  0  0  0
   65.2605  -12.3886   -7.5727 C   0  0  0  0  0  0  0  0  0  0  0  0
   65.0486  -11.0886   -7.9696 C   0  0  0  0  0  0  0  0  0  0  0  0
 23 24  1  0  0  0
 24 25  1  0  0  0
 25 26  2  0  0  0
 25  1  1  0  0  0
  1  2  1  0  0  0
  2  3  1  0  0  0
  3  4  1  0  0  0
  4  5  2  0  0  0
  4  6  1  0  0  0
  6  7  1  0  0  0
  7  8  1  0  0  0
  8  9  1  0  0  0
  9 10  1  0  0  0
 10 11  2  0  0  0
 10 12  1  0  0  0
 12 13  1  0  0  0
 13 14  1  0  0  0
 14 28  1  0  0  0
 28 29  2  0  0  0
 28 30  1  0  0  0
 14 15  1  0  0  0
 15 16  1  0  0  0
 16 32  1  0  0  0
 32 33  1  0  0  0
 33 34  1  0  0  0
 34 35  2  0  0  0
 35 36  1  0  0  0
 36 37  2  0  0  0
 37 38  1  0  0  0
 38 39  2  0  0  0
 16 17  1  0  0  0
 17 18  2  0  0  0
 17 19  1  0  0  0
 19  1  1  0  0  0
 39 34  1  0  0  0
 24 27  1  0  0  0
  9 20  1  0  0  0
 30 31  1  0  0  0
 15 21  1  0  0  0
 19 22  1  0  0  0
M  END
> <minimizedAffinity>
-0.50445

> <CNNscore>
0.4524487257

> <CNNaffinity>
5.3041024208

> <CNN_VS>
2.3998343945

> <CNNaffinity_variance>
0.8912984133

$$$$
[H]OC(=O)[C@]1([H])N([H])[C@@]([H])(C([H])([H])C([H])([H])c2c([H])c([H])c([H])c([H])c2[H])C(=O)N([H])[C@]([H])(C(=O)N([H])C([H])([H])[H])C([H])([H])C([H])([H])C(=O)OC([H])([H])C([H])([H])N([H])C(=O)C([H])([H])C1([H])[H]


 39 40  0  0  0  0  0  0  0  0999 V2000
   59.4968   -7.4244   -3.1590 C   0  0  0  0  0  0  0  0  0  0  0  0
   58.7017   -6.7821   -4.2476 C   0  0  0  0  0  0  0  0  0  0  0  0
   57.2605   -6.5255   -3.9787 C   0  0  0  0  0  0  0  0  0  0  0  0
   56.4419   -6.8560   -5.2025 C   0  0  0  0  0  0  0  0  0  0  0  0
   55.8984   -8.0131   -5.2173 O   0  0  0  0  0  0  0  0  0  0  0  0
   56.2626   -6.0067   -6.2554 O   0  0  0  0  0  0  0  0  0  0  0  0
   57.1988   -5.3088   -6.9990 C   0  0  0  0  0  0  0  0  0  0  0  0
   57.6585   -6.0313   -8.2656 C   0  0  0  0  0  0  0  0  0  0  0  0
   58.8985   -5.4441   -8.6923 N   0  0  0  0  0  0  0  0  0  0  0  0
   59.9276   -6.0746   -9.4264 C   0  0  0  0  0  0  0  0  0  0  0  0
   60.4611   -5.4876  -10.4308 O   0  0  0  0  0  0  0  0  0  0  0  0
   60.4749   -7.4316   -9.1194 C   0  0  0  0  0  0  0  0  0  0  0  0
   60.6026   -7.6635   -7.6493 C   0  0  0  0  0  0  0  0  0  0  0  0
   61.9248   -7.2498   -7.0387 C   0  0  0  0  0  0  0  0  0  0  0  0
   61.8962   -7.5904   -5.6461 N   0  0  0  0  0  0  0  0  0  0  0  0
   61.7835   -8.9218   -5.2406 C   0  0  0  0  0  0  0  0  0  0  0  0
   60.5092   -9.3223   -4.5817 C   0  0  0  0  0  0  0  0  0  0  0  0
   59.9093  -10.3082   -5.1388 O   0  0  0  0  0  0  0  0  0  0  0  0
   59.8867   -8.7926   -3.4656 N   0  0  0  0  0  0  0  0  0  0  0  0
   59.0680   -4.4276   -8.4362 H   0  0  0  0  0  0  0  0  0  0  0  0
   62.4691   -6.9357   -5.1187 H   0  0  0  0  0  0  0  0  0  0  0  0
   59.6360   -9.4791   -2.6771 H   0  0  0  0  0  0  0  0  0  0  0  0
   57.3898   -8.2478   -0.0597 C   0  0  0  0  0  0  0  0  0  0  0  0
   58.0509   -8.3450   -1.3362 N   0  0  0  0  0  0  0  0  0  0  0  0
   58.8310   -7.3002   -1.8515 C   0  0  0  0  0  0  0  0  0  0  0  0
   58.9601   -6.2556   -1.1928 O   0  0  0  0  0  0  0  0  0  0  0  0
   57.9440   -9.2191   -1.8919 H   0  0  0  0  0  0  0  0  0  0  0  0
   63.0792   -7.7177   -7.8025 C   0  0  0  0  0  0  0  0  0  0  0  0
   63.1059   -8.6675   -8.6182 O   0  0  0  0  0  0  0  0  0  0  0  0
   64.2898   -7.0304   -7.5976 O   0  0  0  0  0  0  0  0  0  0  0  0
   64.9197   -7.4593   -6.9329 H   0  0  0  0  0  0  0  0  0  0  0  0
   62.9661   -9.4058   -4.3934 C   0  0  0  0  0  0  0  0  0  0  0  0
   62.5539   -9.7045   -2.9925 C   0  0  0  0  0  0  0  0  0  0  0  0
   63.2119   -8.7831   -2.0125 C   0  0  0  0  0  0  0  0  0  0  0  0
   64.5286   -8.4449   -2.0825 C   0  0  0  0  0  0  0  0  0  0  0  0
   65.0230   -7.5777   -1.1156 C   0  0  0  0  0  0  0  0  0  0  0  0
   64.2249   -7.0658   -0.1108 C   0  0  0  0  0  0  0  0  0  0  0  0
   62.8963   -7.4163   -0.0523 C   0  0  0  0  0  0  0  0  0  0  0  0
   62.4136   -8.2749   -1.0125 C   0  0  0  0  0  0  0  0  0  0  0  0
 23 24  1  0  0  0
 24 25  1  0  0  0
 25 26  2  0  0  0
 25  1  1  0  0  0
  1  2  1  0  0  0
  2  3  1  0  0  0
  3  4  1  0  0  0
  4  5  2  0  0  0
  4  6  1  0  0  0
  6  7  1  0  0  0
  7  8  1  0  0  0
  8  9  1  0  0  0
  9 10  1  0  0  0
 10 11  2  0  0  0
 10 12  1  0  0  0
 12 13  1  0  0  0
 13 14  1  0  0  0
 14 28  1  0  0  0
 28 29  2  0  0  0
 28 30  1  0  0  0
 14 15  1  0  0  0
 15 16  1  0  0  0
 16 32  1  0  0  0
 32 33  1  0  0  0
 33 34  1  0  0  0
 34 35  2  0  0  0
 35 36  1  0  0  0
 36 37  2  0  0  0
 37 38  1  0  0  0
 38 39  2  0  0  0
 16 17  1  0  0  0
 17 18  2  0  0  0
 17 19  1  0  0  0
 19  1  1  0  0  0
 39 34  1  0  0  0
 24 27  1  0  0  0
  9 20  1  0  0  0
 30 31  1  0  0  0
 15 21  1  0  0  0
 19 22  1  0  0  0
M  END
> <minimizedAffinity>
-1.19977

> <CNNscore>
0.4397550225

> <CNNaffinity>
5.2337350845

> <CNN_VS>
2.3015613556

> <CNNaffinity_variance>
0.9015863538

$$$$
[H]OC(=O)[C@]1([H])N([H])[C@@]([H])(C([H])([H])C([H])([H])c2c([H])c([H])c([H])c([H])c2[H])C(=O)N([H])[C@]([H])(C(=O)N([H])C([H])([H])[H])C([H])([H])C([H])([H])C(=O)OC([H])([H])C([H])([H])N([H])C(=O)C([H])([H])C1([H])[H]


 39 40  0  0  0  0  0  0  0  0999 V2000
   59.3746   -7.3459   -3.1363 C   0  0  0  0  0  0  0  0  0  0  0  0
   58.5969   -6.7227   -4.2483 C   0  0  0  0  0  0  0  0  0  0  0  0
   57.1479   -6.4770   -4.0127 C   0  0  0  0  0  0  0  0  0  0  0  0
   56.3587   -6.8283   -5.2499 C   0  0  0  0  0  0  0  0  0  0  0  0
   55.8264   -7.9905   -5.2638 O   0  0  0  0  0  0  0  0  0  0  0  0
   56.1939   -5.9917   -6.3154 O   0  0  0  0  0  0  0  0  0  0  0  0
   57.1391   -5.2929   -7.0465 C   0  0  0  0  0  0  0  0  0  0  0  0
   57.6323   -6.0242   -8.2952 C   0  0  0  0  0  0  0  0  0  0  0  0
   58.8757   -5.4296   -8.7019 N   0  0  0  0  0  0  0  0  0  0  0  0
   59.9259   -6.0580   -9.4073 C   0  0  0  0  0  0  0  0  0  0  0  0
   60.4751   -5.4766  -10.4064 O   0  0  0  0  0  0  0  0  0  0  0  0
   60.4792   -7.4065   -9.0742 C   0  0  0  0  0  0  0  0  0  0  0  0
   60.5778   -7.6216   -7.5993 C   0  0  0  0  0  0  0  0  0  0  0  0
   61.8828   -7.1889   -6.9654 C   0  0  0  0  0  0  0  0  0  0  0  0
   61.8278   -7.5151   -5.5701 N   0  0  0  0  0  0  0  0  0  0  0  0
   61.7189   -8.8432   -5.1529 C   0  0  0  0  0  0  0  0  0  0  0  0
   60.4347   -9.2489   -4.5168 C   0  0  0  0  0  0  0  0  0  0  0  0
   59.8560  -10.2463   -5.0759 O   0  0  0  0  0  0  0  0  0  0  0  0
   59.7837   -8.7135   -3.4199 N   0  0  0  0  0  0  0  0  0  0  0  0
   59.0302   -4.4089   -8.4532 H   0  0  0  0  0  0  0  0  0  0  0  0
   62.3832   -6.8495   -5.0378 H   0  0  0  0  0  0  0  0  0  0  0  0
   59.5227   -9.3940   -2.6295 H   0  0  0  0  0  0  0  0  0  0  0  0
   57.1669   -8.1355   -0.0989 C   0  0  0  0  0  0  0  0  0  0  0  0
   57.8568   -8.2403   -1.3595 N   0  0  0  0  0  0  0  0  0  0  0  0
   58.6801   -7.2143   -1.8446 C   0  0  0  0  0  0  0  0  0  0  0  0
   58.8232   -6.1802   -1.1723 O   0  0  0  0  0  0  0  0  0  0  0  0
   57.7383   -9.1056   -1.9265 H   0  0  0  0  0  0  0  0  0  0  0  0
   63.0575   -7.6537   -7.6995 C   0  0  0  0  0  0  0  0  0  0  0  0
   63.0666   -8.3551   -8.7370 O   0  0  0  0  0  0  0  0  0  0  0  0
   64.3114   -7.2762   -7.1847 O   0  0  0  0  0  0  0  0  0  0  0  0
   64.7611   -7.9676   -6.5997 H   0  0  0  0  0  0  0  0  0  0  0  0
   62.8877   -9.3069   -4.2757 C   0  0  0  0  0  0  0  0  0  0  0  0
   63.8326  -10.1766   -5.0324 C   0  0  0  0  0  0  0  0  0  0  0  0
   63.1278  -11.3267   -5.6825 C   0  0  0  0  0  0  0  0  0  0  0  0
   62.5004  -12.3065   -4.9757 C   0  0  0  0  0  0  0  0  0  0  0  0
   61.8784  -13.3208   -5.6938 C   0  0  0  0  0  0  0  0  0  0  0  0
   61.8843  -13.3533   -7.0749 C   0  0  0  0  0  0  0  0  0  0  0  0
   62.5222  -12.3567   -7.7761 C   0  0  0  0  0  0  0  0  0  0  0  0
   63.1358  -11.3559   -7.0590 C   0  0  0  0  0  0  0  0  0  0  0  0
 23 24  1  0  0  0
 24 25  1  0  0  0
 25 26  2  0  0  0
 25  1  1  0  0  0
  1  2  1  0  0  0
  2  3  1  0  0  0
  3  4  1  0  0  0
  4  5  2  0  0  0
  4  6  1  0  0  0
  6  7  1  0  0  0
  7  8  1  0  0  0
  8  9  1  0  0  0
  9 10  1  0  0  0
 10 11  2  0  0  0
 10 12  1  0  0  0
 12 13  1  0  0  0
 13 14  1  0  0  0
 14 28  1  0  0  0
 28 29  2  0  0  0
 28 30  1  0  0  0
 14 15  1  0  0  0
 15 16  1  0  0  0
 16 32  1  0  0  0
 32 33  1  0  0  0
 33 34  1  0  0  0
 34 35  2  0  0  0
 35 36  1  0  0  0
 36 37  2  0  0  0
 37 38  1  0  0  0
 38 39  2  0  0  0
 16 17  1  0  0  0
 17 18  2  0  0  0
 17 19  1  0  0  0
 19  1  1  0  0  0
 39 34  1  0  0  0
 24 27  1  0  0  0
  9 20  1  0  0  0
 30 31  1  0  0  0
 15 21  1  0  0  0
 19 22  1  0  0  0
M  END
> <minimizedAffinity>
-1.15178

> <CNNscore>
0.4355387986

> <CNNaffinity>
5.2147092819

> <CNN_VS>
2.2712082863

> <CNNaffinity_variance>
0.8709976077

$$$$
[H]OC(=O)[C@]1([H])N([H])[C@@]([H])(C([H])([H])C([H])([H])c2c([H])c([H])c([H])c([H])c2[H])C(=O)N([H])[C@]([H])(C(=O)N([H])C([H])([H])[H])C([H])([H])C([H])([H])C(=O)OC([H])([H])C([H])([H])N([H])C(=O)C([H])([H])C1([H])[H]


 39 40  0  0  0  0  0  0  0  0999 V2000
   60.1081   -8.2374   -3.5740 C   0  0  0  0  0  0  0  0  0  0  0  0
   59.1782   -7.3898   -4.3782 C   0  0  0  0  0  0  0  0  0  0  0  0
   57.8310   -7.1227   -3.8047 C   0  0  0  0  0  0  0  0  0  0  0  0
   56.7842   -7.2098   -4.8881 C   0  0  0  0  0  0  0  0  0  0  0  0
   56.1655   -8.3246   -4.9812 O   0  0  0  0  0  0  0  0  0  0  0  0
   56.4798   -6.1894   -5.7416 O   0  0  0  0  0  0  0  0  0  0  0  0
   57.3145   -5.4161   -6.5300 C   0  0  0  0  0  0  0  0  0  0  0  0
   57.4861   -5.9346   -7.9580 C   0  0  0  0  0  0  0  0  0  0  0  0
   58.6680   -5.3357   -8.5139 N   0  0  0  0  0  0  0  0  0  0  0  0
   59.5006   -5.8763   -9.5191 C   0  0  0  0  0  0  0  0  0  0  0  0
   59.8854   -5.1519  -10.5015 O   0  0  0  0  0  0  0  0  0  0  0  0
   59.9957   -7.2869   -9.5378 C   0  0  0  0  0  0  0  0  0  0  0  0
   60.3686   -7.7667   -8.1732 C   0  0  0  0  0  0  0  0  0  0  0  0
   61.8052   -7.5157   -7.7665 C   0  0  0  0  0  0  0  0  0  0  0  0
   62.0031   -8.0833   -6.4645 N   0  0  0  0  0  0  0  0  0  0  0  0
   61.8702   -9.4580   -6.2590 C   0  0  0  0  0  0  0  0  0  0  0  0
   60.7099   -9.9104   -5.4422 C   0  0  0  0  0  0  0  0  0  0  0  0
   59.9505  -10.7636   -6.0235 O   0  0  0  0  0  0  0  0  0  0  0  0
   60.3376   -9.5499   -4.1595 N   0  0  0  0  0  0  0  0  0  0  0  0
   58.9530   -4.3843   -8.1384 H   0  0  0  0  0  0  0  0  0  0  0  0
   62.7069   -7.5503   -5.9589 H   0  0  0  0  0  0  0  0  0  0  0  0
   60.1843  -10.3478   -3.4554 H   0  0  0  0  0  0  0  0  0  0  0  0
   59.3673   -9.6061   -0.0667 C   0  0  0  0  0  0  0  0  0  0  0  0
   59.7617   -9.5128   -1.4494 N   0  0  0  0  0  0  0  0  0  0  0  0
   59.6988   -8.3066   -2.1612 C   0  0  0  0  0  0  0  0  0  0  0  0
   59.2911   -7.2830   -1.5886 O   0  0  0  0  0  0  0  0  0  0  0  0
   60.1031  -10.3693   -1.9331 H   0  0  0  0  0  0  0  0  0  0  0  0
   62.7670   -7.8963   -8.7985 C   0  0  0  0  0  0  0  0  0  0  0  0
   62.5079   -8.3037   -9.9540 O   0  0  0  0  0  0  0  0  0  0  0  0
   64.1285   -7.7976   -8.4570 O   0  0  0  0  0  0  0  0  0  0  0  0
   64.5569   -8.6595   -8.1471 H   0  0  0  0  0  0  0  0  0  0  0  0
   63.1482  -10.1252   -5.7373 C   0  0  0  0  0  0  0  0  0  0  0  0
   62.8839  -11.5035   -5.2351 C   0  0  0  0  0  0  0  0  0  0  0  0
   63.5806  -11.7630   -3.9353 C   0  0  0  0  0  0  0  0  0  0  0  0
   63.2809  -12.8204   -3.1321 C   0  0  0  0  0  0  0  0  0  0  0  0
   64.0001  -12.9560   -1.9508 C   0  0  0  0  0  0  0  0  0  0  0  0
   64.9876  -12.0617   -1.5852 C   0  0  0  0  0  0  0  0  0  0  0  0
   65.2798  -10.9978   -2.4063 C   0  0  0  0  0  0  0  0  0  0  0  0
   64.5640  -10.8697   -3.5741 C   0  0  0  0  0  0  0  0  0  0  0  0
 23 24  1  0  0  0
 24 25  1  0  0  0
 25 26  2  0  0  0
 25  1  1  0  0  0
  1  2  1  0  0  0
  2  3  1  0  0  0
  3  4  1  0  0  0
  4  5  2  0  0  0
  4  6  1  0  0  0
  6  7  1  0  0  0
  7  8  1  0  0  0
  8  9  1  0  0  0
  9 10  1  0  0  0
 10 11  2  0  0  0
 10 12  1  0  0  0
 12 13  1  0  0  0
 13 14  1  0  0  0
 14 28  1  0  0  0
 28 29  2  0  0  0
 28 30  1  0  0  0
 14 15  1  0  0  0
 15 16  1  0  0  0
 16 32  1  0  0  0
 32 33  1  0  0  0
 33 34  1  0  0  0
 34 35  2  0  0  0
 35 36  1  0  0  0
 36 37  2  0  0  0
 37 38  1  0  0  0
 38 39  2  0  0  0
 16 17  1  0  0  0
 17 18  2  0  0  0
 17 19  1  0  0  0
 19  1  1  0  0  0
 39 34  1  0  0  0
 24 27  1  0  0  0
  9 20  1  0  0  0
 30 31  1  0  0  0
 15 21  1  0  0  0
 19 22  1  0  0  0
M  END
> <minimizedAffinity>
0.38721

> <CNNscore>
0.4338531792

> <CNNaffinity>
4.9813375473

> <CNN_VS>
2.1611690521

> <CNNaffinity_variance>
0.7952784896

$$$$
[H]OC(=O)[C@]1([H])N([H])[C@@]([H])(C([H])([H])C([H])([H])c2c([H])c([H])c([H])c([H])c2[H])C(=O)N([H])[C@]([H])(C(=O)N([H])C([H])([H])[H])C([H])([H])C([H])([H])C(=O)OC([H])([H])C([H])([H])N([H])C(=O)C([H])([H])C1([H])[H]


 39 40  0  0  0  0  0  0  0  0999 V2000
   62.4669   -7.6304   -5.7959 C   0  0  0  0  0  0  0  0  0  0  0  0
   61.1792   -7.4122   -5.0722 C   0  0  0  0  0  0  0  0  0  0  0  0
   61.0187   -8.0773   -3.7504 C   0  0  0  0  0  0  0  0  0  0  0  0
   59.6223   -8.6341   -3.6207 C   0  0  0  0  0  0  0  0  0  0  0  0
   59.4859   -9.8749   -3.8967 O   0  0  0  0  0  0  0  0  0  0  0  0
   58.5384   -7.8995   -3.2364 O   0  0  0  0  0  0  0  0  0  0  0  0
   58.0730   -6.6888   -3.7202 C   0  0  0  0  0  0  0  0  0  0  0  0
   57.0110   -6.8165   -4.8125 C   0  0  0  0  0  0  0  0  0  0  0  0
   56.9390   -5.5662   -5.5170 N   0  0  0  0  0  0  0  0  0  0  0  0
   56.5468   -5.3703   -6.8599 C   0  0  0  0  0  0  0  0  0  0  0  0
   55.7200   -4.4425   -7.1653 O   0  0  0  0  0  0  0  0  0  0  0  0
   57.0354   -6.1900   -8.0108 C   0  0  0  0  0  0  0  0  0  0  0  0
   58.4868   -6.5201   -7.8859 C   0  0  0  0  0  0  0  0  0  0  0  0
   59.4370   -5.5152   -8.5020 C   0  0  0  0  0  0  0  0  0  0  0  0
   60.7727   -6.0114   -8.3412 N   0  0  0  0  0  0  0  0  0  0  0  0
   61.1668   -7.2059   -8.9476 C   0  0  0  0  0  0  0  0  0  0  0  0
   61.4462   -8.3603   -8.0489 C   0  0  0  0  0  0  0  0  0  0  0  0
   60.7692   -9.4160   -8.3130 O   0  0  0  0  0  0  0  0  0  0  0  0
   62.3230   -8.4591   -6.9836 N   0  0  0  0  0  0  0  0  0  0  0  0
   57.2039   -4.6898   -4.9791 H   0  0  0  0  0  0  0  0  0  0  0  0
   61.4228   -5.2330   -8.2608 H   0  0  0  0  0  0  0  0  0  0  0  0
   63.0265   -9.2718   -7.0067 H   0  0  0  0  0  0  0  0  0  0  0  0
   64.6608   -9.9579   -3.6762 C   0  0  0  0  0  0  0  0  0  0  0  0
   63.6332   -9.4658   -4.5583 N   0  0  0  0  0  0  0  0  0  0  0  0
   63.5264   -8.1082   -4.8917 C   0  0  0  0  0  0  0  0  0  0  0  0
   64.3389   -7.2991   -4.4152 O   0  0  0  0  0  0  0  0  0  0  0  0
   62.9495  -10.1412   -4.9589 H   0  0  0  0  0  0  0  0  0  0  0  0
   59.0475   -5.1120   -9.8514 C   0  0  0  0  0  0  0  0  0  0  0  0
   59.7481   -5.1782  -10.8873 O   0  0  0  0  0  0  0  0  0  0  0  0
   57.7491   -4.5914  -10.0025 O   0  0  0  0  0  0  0  0  0  0  0  0
   57.6877   -3.5821   -9.9946 H   0  0  0  0  0  0  0  0  0  0  0  0
   62.3293   -7.0376   -9.9329 C   0  0  0  0  0  0  0  0  0  0  0  0
   62.0759   -7.7603  -11.2117 C   0  0  0  0  0  0  0  0  0  0  0  0
   63.3522   -8.1700  -11.8792 C   0  0  0  0  0  0  0  0  0  0  0  0
   63.6666   -9.4677  -12.1440 C   0  0  0  0  0  0  0  0  0  0  0  0
   64.8807   -9.7212  -12.7709 C   0  0  0  0  0  0  0  0  0  0  0  0
   65.7521   -8.7080  -13.1213 C   0  0  0  0  0  0  0  0  0  0  0  0
   65.4215   -7.4014  -12.8476 C   0  0  0  0  0  0  0  0  0  0  0  0
   64.2183   -7.1578  -12.2269 C   0  0  0  0  0  0  0  0  0  0  0  0
 23 24  1  0  0  0
 24 25  1  0  0  0
 25 26  2  0  0  0
 25  1  1  0  0  0
  1  2  1  0  0  0
  2  3  1  0  0  0
  3  4  1  0  0  0
  4  5  2  0  0  0
  4  6  1  0  0  0
  6  7  1  0  0  0
  7  8  1  0  0  0
  8  9  1  0  0  0
  9 10  1  0  0  0
 10 11  2  0  0  0
 10 12  1  0  0  0
 12 13  1  0  0  0
 13 14  1  0  0  0
 14 28  1  0  0  0
 28 29  2  0  0  0
 28 30  1  0  0  0
 14 15  1  0  0  0
 15 16  1  0  0  0
 16 32  1  0  0  0
 32 33  1  0  0  0
 33 34  1  0  0  0
 34 35  2  0  0  0
 35 36  1  0  0  0
 36 37  2  0  0  0
 37 38  1  0  0  0
 38 39  2  0  0  0
 16 17  1  0  0  0
 17 18  2  0  0  0
 17 19  1  0  0  0
 19  1  1  0  0  0
 39 34  1  0  0  0
 24 27  1  0  0  0
  9 20  1  0  0  0
 30 31  1  0  0  0
 15 21  1  0  0  0
 19 22  1  0  0  0
M  END
> <minimizedAffinity>
0.86691

> <CNNscore>
0.4329719841

> <CNNaffinity>
5.2371082306

> <CNN_VS>
2.2675211430

> <CNNaffinity_variance>
0.9993293881

$$$$
[H]OC(=O)[C@]1([H])N([H])[C@@]([H])(C([H])([H])C([H])([H])c2c([H])c([H])c([H])c([H])c2[H])C(=O)N([H])[C@]([H])(C(=O)N([H])C([H])([H])[H])C([H])([H])C([H])([H])C(=O)OC([H])([H])C([H])([H])N([H])C(=O)C([H])([H])C1([H])[H]


 39 40  0  0  0  0  0  0  0  0999 V2000
   59.4353   -3.8899  -14.9316 C   0  0  0  0  0  0  0  0  0  0  0  0
   58.8266   -4.3271  -13.6401 C   0  0  0  0  0  0  0  0  0  0  0  0
   57.5241   -3.7161  -13.2589 C   0  0  0  0  0  0  0  0  0  0  0  0
   57.5169   -3.3985  -11.7838 C   0  0  0  0  0  0  0  0  0  0  0  0
   57.8041   -2.1932  -11.4687 O   0  0  0  0  0  0  0  0  0  0  0  0
   57.2283   -4.3067  -10.8070 O   0  0  0  0  0  0  0  0  0  0  0  0
   57.7505   -5.5705  -10.5912 C   0  0  0  0  0  0  0  0  0  0  0  0
   58.9314   -5.6038   -9.6207 C   0  0  0  0  0  0  0  0  0  0  0  0
   59.6390   -6.8388   -9.8170 N   0  0  0  0  0  0  0  0  0  0  0  0
   61.0109   -7.0775   -9.5796 C   0  0  0  0  0  0  0  0  0  0  0  0
   61.3871   -8.1244   -8.9466 O   0  0  0  0  0  0  0  0  0  0  0  0
   62.1152   -6.1725  -10.0234 C   0  0  0  0  0  0  0  0  0  0  0  0
   61.8642   -5.6100  -11.3842 C   0  0  0  0  0  0  0  0  0  0  0  0
   62.3948   -6.4362  -12.5367 C   0  0  0  0  0  0  0  0  0  0  0  0
   62.1182   -5.7294  -13.7533 N   0  0  0  0  0  0  0  0  0  0  0  0
   62.6883   -4.4780  -13.9955 C   0  0  0  0  0  0  0  0  0  0  0  0
   61.7691   -3.3061  -14.0022 C   0  0  0  0  0  0  0  0  0  0  0  0
   62.0914   -2.3725  -13.1855 O   0  0  0  0  0  0  0  0  0  0  0  0
   60.6313   -3.0795  -14.7557 N   0  0  0  0  0  0  0  0  0  0  0  0
   59.0798   -7.6672  -10.1756 H   0  0  0  0  0  0  0  0  0  0  0  0
   61.9812   -6.3914  -14.5136 H   0  0  0  0  0  0  0  0  0  0  0  0
   60.5932   -2.1619  -15.3147 H   0  0  0  0  0  0  0  0  0  0  0  0
   57.7174   -1.3510  -17.2394 C   0  0  0  0  0  0  0  0  0  0  0  0
   58.6731   -1.9908  -16.3715 N   0  0  0  0  0  0  0  0  0  0  0  0
   58.4423   -3.2572  -15.8158 C   0  0  0  0  0  0  0  0  0  0  0  0
   57.3832   -3.8513  -16.0751 O   0  0  0  0  0  0  0  0  0  0  0  0
   59.5619   -1.4952  -16.1510 H   0  0  0  0  0  0  0  0  0  0  0  0
   63.7729   -6.8789  -12.3367 C   0  0  0  0  0  0  0  0  0  0  0  0
   64.7721   -6.1540  -12.1260 O   0  0  0  0  0  0  0  0  0  0  0  0
   64.0022   -8.2661  -12.3896 O   0  0  0  0  0  0  0  0  0  0  0  0
   64.3248   -8.6142  -13.2825 H   0  0  0  0  0  0  0  0  0  0  0  0
   63.5684   -4.4389  -15.2503 C   0  0  0  0  0  0  0  0  0  0  0  0
   64.9921   -4.1514  -14.9153 C   0  0  0  0  0  0  0  0  0  0  0  0
   65.1695   -2.7569  -14.3994 C   0  0  0  0  0  0  0  0  0  0  0  0
   65.6309   -2.4828  -13.1483 C   0  0  0  0  0  0  0  0  0  0  0  0
   65.7551   -1.1468  -12.7862 C   0  0  0  0  0  0  0  0  0  0  0  0
   65.4277   -0.1184  -13.6487 C   0  0  0  0  0  0  0  0  0  0  0  0
   64.9627   -0.4101  -14.9097 C   0  0  0  0  0  0  0  0  0  0  0  0
   64.8423   -1.7345  -15.2615 C   0  0  0  0  0  0  0  0  0  0  0  0
 23 24  1  0  0  0
 24 25  1  0  0  0
 25 26  2  0  0  0
 25  1  1  0  0  0
  1  2  1  0  0  0
  2  3  1  0  0  0
  3  4  1  0  0  0
  4  5  2  0  0  0
  4  6  1  0  0  0
  6  7  1  0  0  0
  7  8  1  0  0  0
  8  9  1  0  0  0
  9 10  1  0  0  0
 10 11  2  0  0  0
 10 12  1  0  0  0
 12 13  1  0  0  0
 13 14  1  0  0  0
 14 28  1  0  0  0
 28 29  2  0  0  0
 28 30  1  0  0  0
 14 15  1  0  0  0
 15 16  1  0  0  0
 16 32  1  0  0  0
 32 33  1  0  0  0
 33 34  1  0  0  0
 34 35  2  0  0  0
 35 36  1  0  0  0
 36 37  2  0  0  0
 37 38  1  0  0  0
 38 39  2  0  0  0
 16 17  1  0  0  0
 17 18  2  0  0  0
 17 19  1  0  0  0
 19  1  1  0  0  0
 39 34  1  0  0  0
 24 27  1  0  0  0
  9 20  1  0  0  0
 30 31  1  0  0  0
 15 21  1  0  0  0
 19 22  1  0  0  0
M  END
> <minimizedAffinity>
-0.18268

> <CNNscore>
0.4158461094

> <CNNaffinity>
4.5099272728

> <CNN_VS>
1.8754357100

> <CNNaffinity_variance>
0.0939286724

$$$$
[H]OC(=O)[C@]1([H])N([H])[C@@]([H])(C([H])([H])C([H])([H])c2c([H])c([H])c([H])c([H])c2[H])C(=O)N([H])[C@]([H])(C(=O)N([H])C([H])([H])[H])C([H])([H])C([H])([H])C(=O)OC([H])([H])C([H])([H])N([H])C(=O)C([H])([H])C1([H])[H]


 39 40  0  0  0  0  0  0  0  0999 V2000
   53.6155   -5.4588   -6.8311 C   0  0  0  0  0  0  0  0  0  0  0  0
   53.9000   -6.2636   -5.6059 C   0  0  0  0  0  0  0  0  0  0  0  0
   52.8258   -6.3447   -4.5788 C   0  0  0  0  0  0  0  0  0  0  0  0
   53.4244   -6.2317   -3.1983 C   0  0  0  0  0  0  0  0  0  0  0  0
   53.3945   -5.0688   -2.6681 O   0  0  0  0  0  0  0  0  0  0  0  0
   53.9760   -7.2767   -2.5157 O   0  0  0  0  0  0  0  0  0  0  0  0
   54.9345   -8.1903   -2.9195 C   0  0  0  0  0  0  0  0  0  0  0  0
   56.3661   -7.8025   -2.5488 C   0  0  0  0  0  0  0  0  0  0  0  0
   57.2648   -8.5616   -3.3739 N   0  0  0  0  0  0  0  0  0  0  0  0
   58.5662   -8.1885   -3.7771 C   0  0  0  0  0  0  0  0  0  0  0  0
   59.5344   -9.0216   -3.6953 O   0  0  0  0  0  0  0  0  0  0  0  0
   58.9302   -6.8426   -4.3169 C   0  0  0  0  0  0  0  0  0  0  0  0
   57.8771   -6.3020   -5.2278 C   0  0  0  0  0  0  0  0  0  0  0  0
   58.0305   -6.6695   -6.6885 C   0  0  0  0  0  0  0  0  0  0  0  0
   56.9769   -6.0284   -7.4201 N   0  0  0  0  0  0  0  0  0  0  0  0
   56.8894   -4.6357   -7.4700 C   0  0  0  0  0  0  0  0  0  0  0  0
   55.7439   -4.0042   -6.7577 C   0  0  0  0  0  0  0  0  0  0  0  0
   56.0781   -3.1233   -5.8890 O   0  0  0  0  0  0  0  0  0  0  0  0
   54.3856   -4.2256   -6.8977 N   0  0  0  0  0  0  0  0  0  0  0  0
   56.9253   -9.5062   -3.7203 H   0  0  0  0  0  0  0  0  0  0  0  0
   56.7260   -6.5918   -8.2292 H   0  0  0  0  0  0  0  0  0  0  0  0
   53.7698   -3.3649   -7.0871 H   0  0  0  0  0  0  0  0  0  0  0  0
   50.1977   -3.7268   -7.0362 C   0  0  0  0  0  0  0  0  0  0  0  0
   51.6075   -3.9662   -6.8598 N   0  0  0  0  0  0  0  0  0  0  0  0
   52.1712   -5.2403   -7.0167 C   0  0  0  0  0  0  0  0  0  0  0  0
   51.4384   -6.1968   -7.3165 O   0  0  0  0  0  0  0  0  0  0  0  0
   52.2250   -3.1666   -6.6073 H   0  0  0  0  0  0  0  0  0  0  0  0
   59.3887   -6.4706   -7.1891 C   0  0  0  0  0  0  0  0  0  0  0  0
   59.7508   -5.6723   -8.0835 O   0  0  0  0  0  0  0  0  0  0  0  0
   60.3961   -7.2618   -6.6070 O   0  0  0  0  0  0  0  0  0  0  0  0
   60.6376   -8.0973   -7.1229 H   0  0  0  0  0  0  0  0  0  0  0  0
   56.9779   -4.0674   -8.8912 C   0  0  0  0  0  0  0  0  0  0  0  0
   56.8862   -5.1418   -9.9203 C   0  0  0  0  0  0  0  0  0  0  0  0
   57.0900   -4.6040  -11.3029 C   0  0  0  0  0  0  0  0  0  0  0  0
   56.0611   -4.3394  -12.1541 C   0  0  0  0  0  0  0  0  0  0  0  0
   56.3780   -3.8394  -13.4115 C   0  0  0  0  0  0  0  0  0  0  0  0
   57.6829   -3.6119  -13.8041 C   0  0  0  0  0  0  0  0  0  0  0  0
   58.7125   -3.8840  -12.9337 C   0  0  0  0  0  0  0  0  0  0  0  0
   58.3916   -4.3786  -11.6908 C   0  0  0  0  0  0  0  0  0  0  0  0
 23 24  1  0  0  0
 24 25  1  0  0  0
 25 26  2  0  0  0
 25  1  1  0  0  0
  1  2  1  0  0  0
  2  3  1  0  0  0
  3  4  1  0  0  0
  4  5  2  0  0  0
  4  6  1  0  0  0
  6  7  1  0  0  0
  7  8  1  0  0  0
  8  9  1  0  0  0
  9 10  1  0  0  0
 10 11  2  0  0  0
 10 12  1  0  0  0
 12 13  1  0  0  0
 13 14  1  0  0  0
 14 28  1  0  0  0
 28 29  2  0  0  0
 28 30  1  0  0  0
 14 15  1  0  0  0
 15 16  1  0  0  0
 16 32  1  0  0  0
 32 33  1  0  0  0
 33 34  1  0  0  0
 34 35  2  0  0  0
 35 36  1  0  0  0
 36 37  2  0  0  0
 37 38  1  0  0  0
 38 39  2  0  0  0
 16 17  1  0  0  0
 17 18  2  0  0  0
 17 19  1  0  0  0
 19  1  1  0  0  0
 39 34  1  0  0  0
 24 27  1  0  0  0
  9 20  1  0  0  0
 30 31  1  0  0  0
 15 21  1  0  0  0
 19 22  1  0  0  0
M  END
> <minimizedAffinity>
-0.59696

> <CNNscore>
0.3883102834

> <CNNaffinity>
5.8912420273

> <CNN_VS>
2.2876298428

> <CNNaffinity_variance>
0.1102681160

$$$$
[H]c1nc2n(n1)C([H])(c1sc([H])c([H])c1[H])C([H])([H])C([H])(c1c([H])c([H])c(Cl)c(Cl)c1[H])N2[H]


 23 26  0  0  0  0  0  0  0  0999 V2000
   55.5712   -4.1069  -10.0330 C   0  0  0  0  0  0  0  0  0  0  0  0
   56.0307   -3.6268   -8.7003 C   0  0  0  0  0  0  0  0  0  0  0  0
   54.9819   -3.7624   -7.6583 C   0  0  0  0  0  0  0  0  0  0  0  0
   53.6514   -3.4969   -8.1055 N   0  0  0  0  0  0  0  0  0  0  0  0
   52.5253   -3.3989   -7.4293 N   0  0  0  0  0  0  0  0  0  0  0  0
   51.4993   -3.1349   -8.2481 C   0  0  0  0  0  0  0  0  0  0  0  0
   52.0378   -3.0713   -9.4782 N   0  0  0  0  0  0  0  0  0  0  0  0
   53.3599   -3.2897   -9.4243 C   0  0  0  0  0  0  0  0  0  0  0  0
   54.3968   -3.3384  -10.3960 N   0  0  0  0  0  0  0  0  0  0  0  0
   54.2505   -2.8318  -11.2842 H   0  0  0  0  0  0  0  0  0  0  0  0
   59.7182   -3.8967  -14.3582 Cl  0  0  0  0  0  0  0  0  0  0  0  0
   58.5228   -3.9619  -13.0852 C   0  0  0  0  0  0  0  0  0  0  0  0
   58.9135   -4.2444  -11.7971 C   0  0  0  0  0  0  0  0  0  0  0  0
   57.9336   -4.2899  -10.7972 C   0  0  0  0  0  0  0  0  0  0  0  0
   56.6129   -4.0625  -11.0705 C   0  0  0  0  0  0  0  0  0  0  0  0
   56.2457   -3.7814  -12.3675 C   0  0  0  0  0  0  0  0  0  0  0  0
   57.1997   -3.7278  -13.3926 C   0  0  0  0  0  0  0  0  0  0  0  0
   56.7478   -3.3720  -15.0458 Cl  0  0  0  0  0  0  0  0  0  0  0  0
   55.0044   -5.1179   -6.9926 C   0  0  0  0  0  0  0  0  0  0  0  0
   54.0363   -6.0803   -7.0333 C   0  0  0  0  0  0  0  0  0  0  0  0
   54.2625   -7.2169   -6.3648 C   0  0  0  0  0  0  0  0  0  0  0  0
   55.4522   -7.3223   -5.6913 C   0  0  0  0  0  0  0  0  0  0  0  0
   56.2095   -5.8306   -6.0173 S   0  0  0  0  0  0  0  0  0  0  0  0
 11 12  1  0  0  0
 12 13  2  0  0  0
 13 14  1  0  0  0
 14 15  2  0  0  0
 15  1  1  0  0  0
  1  2  1  0  0  0
  2  3  1  0  0  0
  3 19  1  0  0  0
 19 20  2  0  0  0
 20 21  1  0  0  0
 21 22  2  0  0  0
 22 23  1  0  0  0
  3  4  1  0  0  0
  4  5  1  0  0  0
  5  6  2  0  0  0
  6  7  1  0  0  0
  7  8  2  0  0  0
  8  9  1  0  0  0
 15 16  1  0  0  0
 16 17  2  0  0  0
 17 18  1  0  0  0
 17 12  1  0  0  0
  9  1  1  0  0  0
 23 19  1  0  0  0
  8  4  1  0  0  0
  9 10  1  0  0  0
M  END
> <minimizedAffinity>
-6.50757

> <CNNscore>
0.6181247830

> <CNNaffinity>
6.3160567284

> <CNN_VS>
3.9041111469

> <CNNaffinity_variance>
0.0912744701

$$$$
[H]c1nc2n(n1)C([H])(c1sc([H])c([H])c1[H])C([H])([H])C([H])(c1c([H])c([H])c(Cl)c(Cl)c1[H])N2[H]


 23 26  0  0  0  0  0  0  0  0999 V2000
   55.9684   -4.3245   -9.5900 C   0  0  0  0  0  0  0  0  0  0  0  0
   56.2187   -3.6972   -8.2627 C   0  0  0  0  0  0  0  0  0  0  0  0
   55.0231   -3.7384   -7.3836 C   0  0  0  0  0  0  0  0  0  0  0  0
   53.7764   -3.5445   -8.0537 N   0  0  0  0  0  0  0  0  0  0  0  0
   52.5602   -3.3938   -7.5709 N   0  0  0  0  0  0  0  0  0  0  0  0
   51.6712   -3.2360   -8.5597 C   0  0  0  0  0  0  0  0  0  0  0  0
   52.3913   -3.2951   -9.6933 N   0  0  0  0  0  0  0  0  0  0  0  0
   53.6897   -3.4842   -9.4160 C   0  0  0  0  0  0  0  0  0  0  0  0
   54.8629   -3.6189  -10.2079 N   0  0  0  0  0  0  0  0  0  0  0  0
   54.8540   -3.2126  -11.1576 H   0  0  0  0  0  0  0  0  0  0  0  0
   60.8747   -4.6079  -13.0245 Cl  0  0  0  0  0  0  0  0  0  0  0  0
   59.4366   -4.5142  -12.0362 C   0  0  0  0  0  0  0  0  0  0  0  0
   58.3649   -3.7645  -12.4613 C   0  0  0  0  0  0  0  0  0  0  0  0
   57.2255   -3.7078  -11.6485 C   0  0  0  0  0  0  0  0  0  0  0  0
   57.1564   -4.3735  -10.4558 C   0  0  0  0  0  0  0  0  0  0  0  0
   58.2418   -5.1179  -10.0509 C   0  0  0  0  0  0  0  0  0  0  0  0
   59.3977   -5.1968  -10.8393 C   0  0  0  0  0  0  0  0  0  0  0  0
   60.7851   -6.1388  -10.3376 Cl  0  0  0  0  0  0  0  0  0  0  0  0
   54.9440   -5.0145   -6.5797 C   0  0  0  0  0  0  0  0  0  0  0  0
   55.6121   -5.3135   -5.4267 C   0  0  0  0  0  0  0  0  0  0  0  0
   55.3940   -6.5132   -4.8763 C   0  0  0  0  0  0  0  0  0  0  0  0
   54.5143   -7.3470   -5.5175 C   0  0  0  0  0  0  0  0  0  0  0  0
   54.0254   -6.4239   -6.8643 S   0  0  0  0  0  0  0  0  0  0  0  0
 11 12  1  0  0  0
 12 13  2  0  0  0
 13 14  1  0  0  0
 14 15  2  0  0  0
 15  1  1  0  0  0
  1  2  1  0  0  0
  2  3  1  0  0  0
  3 19  1  0  0  0
 19 20  2  0  0  0
 20 21  1  0  0  0
 21 22  2  0  0  0
 22 23  1  0  0  0
  3  4  1  0  0  0
  4  5  1  0  0  0
  5  6  2  0  0  0
  6  7  1  0  0  0
  7  8  2  0  0  0
  8  9  1  0  0  0
 15 16  1  0  0  0
 16 17  2  0  0  0
 17 18  1  0  0  0
 17 12  1  0  0  0
  9  1  1  0  0  0
 23 19  1  0  0  0
  8  4  1  0  0  0
  9 10  1  0  0  0
M  END
> <minimizedAffinity>
-5.50659

> <CNNscore>
0.5993009806

> <CNNaffinity>
6.1959891319

> <CNN_VS>
3.7132623196

> <CNNaffinity_variance>
0.2248778641

$$$$
[H]c1nc2n(n1)C([H])(c1sc([H])c([H])c1[H])C([H])([H])C([H])(c1c([H])c([H])c(Cl)c(Cl)c1[H])N2[H]


 23 26  0  0  0  0  0  0  0  0999 V2000
   55.5076   -4.2497  -11.3340 C   0  0  0  0  0  0  0  0  0  0  0  0
   56.4852   -3.5143  -10.4847 C   0  0  0  0  0  0  0  0  0  0  0  0
   55.9925   -3.3158   -9.0984 C   0  0  0  0  0  0  0  0  0  0  0  0
   54.5932   -3.0500   -8.9893 N   0  0  0  0  0  0  0  0  0  0  0  0
   53.8671   -2.7033   -7.9464 N   0  0  0  0  0  0  0  0  0  0  0  0
   52.5820   -2.5507   -8.2900 C   0  0  0  0  0  0  0  0  0  0  0  0
   52.5352   -2.8196   -9.6063 N   0  0  0  0  0  0  0  0  0  0  0  0
   53.7561   -3.1302  -10.0662 C   0  0  0  0  0  0  0  0  0  0  0  0
   54.2729   -3.4900  -11.3410 N   0  0  0  0  0  0  0  0  0  0  0  0
   53.7452   -3.1926  -12.1777 H   0  0  0  0  0  0  0  0  0  0  0  0
   57.5162   -5.2731  -16.8898 Cl  0  0  0  0  0  0  0  0  0  0  0  0
   56.9297   -4.9932  -15.2676 C   0  0  0  0  0  0  0  0  0  0  0  0
   56.6233   -6.0630  -14.4595 C   0  0  0  0  0  0  0  0  0  0  0  0
   56.1553   -5.8084  -13.1640 C   0  0  0  0  0  0  0  0  0  0  0  0
   55.9982   -4.5349  -12.6910 C   0  0  0  0  0  0  0  0  0  0  0  0
   56.3115   -3.4796  -13.5183 C   0  0  0  0  0  0  0  0  0  0  0  0
   56.7822   -3.6978  -14.8201 C   0  0  0  0  0  0  0  0  0  0  0  0
   57.1843   -2.3666  -15.8831 Cl  0  0  0  0  0  0  0  0  0  0  0  0
   56.3337   -4.4771   -8.1950 C   0  0  0  0  0  0  0  0  0  0  0  0
   55.4678   -5.2696   -7.4969 C   0  0  0  0  0  0  0  0  0  0  0  0
   55.9884   -6.2495   -6.7495 C   0  0  0  0  0  0  0  0  0  0  0  0
   57.3536   -6.3780   -6.7459 C   0  0  0  0  0  0  0  0  0  0  0  0
   57.8580   -5.1256   -7.7863 S   0  0  0  0  0  0  0  0  0  0  0  0
 11 12  1  0  0  0
 12 13  2  0  0  0
 13 14  1  0  0  0
 14 15  2  0  0  0
 15  1  1  0  0  0
  1  2  1  0  0  0
  2  3  1  0  0  0
  3 19  1  0  0  0
 19 20  2  0  0  0
 20 21  1  0  0  0
 21 22  2  0  0  0
 22 23  1  0  0  0
  3  4  1  0  0  0
  4  5  1  0  0  0
  5  6  2  0  0  0
  6  7  1  0  0  0
  7  8  2  0  0  0
  8  9  1  0  0  0
 15 16  1  0  0  0
 16 17  2  0  0  0
 17 18  1  0  0  0
 17 12  1  0  0  0
  9  1  1  0  0  0
 23 19  1  0  0  0
  8  4  1  0  0  0
  9 10  1  0  0  0
M  END
> <minimizedAffinity>
1.22749

> <CNNscore>
0.5446738601

> <CNNaffinity>
5.8106856346

> <CNN_VS>
3.1649286747

> <CNNaffinity_variance>
0.1478433460

$$$$
[H]c1nc2n(n1)C([H])(c1sc([H])c([H])c1[H])C([H])([H])C([H])(c1c([H])c([H])c(Cl)c(Cl)c1[H])N2[H]


 23 26  0  0  0  0  0  0  0  0999 V2000
   63.9796   -7.9216   -8.0751 C   0  0  0  0  0  0  0  0  0  0  0  0
   62.5042   -8.1224   -8.1021 C   0  0  0  0  0  0  0  0  0  0  0  0
   62.1169   -9.3745   -8.7994 C   0  0  0  0  0  0  0  0  0  0  0  0
   62.9140   -9.6997   -9.9394 N   0  0  0  0  0  0  0  0  0  0  0  0
   62.7674  -10.6461  -10.8438 N   0  0  0  0  0  0  0  0  0  0  0  0
   63.7501  -10.5940  -11.7516 C   0  0  0  0  0  0  0  0  0  0  0  0
   64.5258   -9.5636  -11.3721 N   0  0  0  0  0  0  0  0  0  0  0  0
   64.0383   -8.9929  -10.2608 C   0  0  0  0  0  0  0  0  0  0  0  0
   64.4453   -7.8997   -9.4477 N   0  0  0  0  0  0  0  0  0  0  0  0
   65.0372   -7.1711   -9.8789 H   0  0  0  0  0  0  0  0  0  0  0  0
   65.7271   -3.0049   -5.1220 Cl  0  0  0  0  0  0  0  0  0  0  0  0
   65.2146   -4.4464   -5.9664 C   0  0  0  0  0  0  0  0  0  0  0  0
   64.8207   -5.5523   -5.2500 C   0  0  0  0  0  0  0  0  0  0  0  0
   64.4149   -6.6936   -5.9536 C   0  0  0  0  0  0  0  0  0  0  0  0
   64.4021   -6.7317   -7.3206 C   0  0  0  0  0  0  0  0  0  0  0  0
   64.8007   -5.6123   -8.0164 C   0  0  0  0  0  0  0  0  0  0  0  0
   65.2127   -4.4534   -7.3448 C   0  0  0  0  0  0  0  0  0  0  0  0
   65.7222   -3.0231   -8.2157 Cl  0  0  0  0  0  0  0  0  0  0  0  0
   62.0948  -10.5662   -7.8717 C   0  0  0  0  0  0  0  0  0  0  0  0
   63.1444  -11.1023   -7.1819 C   0  0  0  0  0  0  0  0  0  0  0  0
   62.9010  -12.1687   -6.4116 C   0  0  0  0  0  0  0  0  0  0  0  0
   61.6128  -12.6374   -6.3780 C   0  0  0  0  0  0  0  0  0  0  0  0
   60.7908  -11.5710   -7.4232 S   0  0  0  0  0  0  0  0  0  0  0  0
 11 12  1  0  0  0
 12 13  2  0  0  0
 13 14  1  0  0  0
 14 15  2  0  0  0
 15  1  1  0  0  0
  1  2  1  0  0  0
  2  3  1  0  0  0
  3 19  1  0  0  0
 19 20  2  0  0  0
 20 21  1  0  0  0
 21 22  2  0  0  0
 22 23  1  0  0  0
  3  4  1  0  0  0
  4  5  1  0  0  0
  5  6  2  0  0  0
  6  7  1  0  0  0
  7  8  2  0  0  0
  8  9  1  0  0  0
 15 16  1  0  0  0
 16 17  2  0  0  0
 17 18  1  0  0  0
 17 12  1  0  0  0
  9  1  1  0  0  0
 23 19  1  0  0  0
  8  4  1  0  0  0
  9 10  1  0  0  0
M  END
> <minimizedAffinity>
-2.95486

> <CNNscore>
0.4692642689

> <CNNaffinity>
4.6943378448

> <CNN_VS>
2.2028849125

> <CNNaffinity_variance>
0.2528865337

$$$$
[H]c1nc2n(n1)C([H])(c1sc([H])c([H])c1[H])C([H])([H])C([H])(c1c([H])c([H])c(Cl)c(Cl)c1[H])N2[H]


 23 26  0  0  0  0  0  0  0  0999 V2000
   62.6933  -10.4242   -7.1993 C   0  0  0  0  0  0  0  0  0  0  0  0
   63.3002   -9.0956   -6.9086 C   0  0  0  0  0  0  0  0  0  0  0  0
   63.6805   -8.3655   -8.1441 C   0  0  0  0  0  0  0  0  0  0  0  0
   64.1990   -9.1859   -9.1924 N   0  0  0  0  0  0  0  0  0  0  0  0
   64.7423   -8.8572  -10.3464 N   0  0  0  0  0  0  0  0  0  0  0  0
   65.0974   -9.9498  -11.0342 C   0  0  0  0  0  0  0  0  0  0  0  0
   64.7493  -10.9866  -10.2525 N   0  0  0  0  0  0  0  0  0  0  0  0
   64.1941  -10.5499   -9.1125 C   0  0  0  0  0  0  0  0  0  0  0  0
   63.6589  -11.1910   -7.9617 N   0  0  0  0  0  0  0  0  0  0  0  0
   63.9862  -12.1465   -7.7450 H   0  0  0  0  0  0  0  0  0  0  0  0
   60.9405  -13.3529   -2.2699 Cl  0  0  0  0  0  0  0  0  0  0  0  0
   61.4335  -12.4977   -3.7119 C   0  0  0  0  0  0  0  0  0  0  0  0
   60.4836  -12.0752   -4.6122 C   0  0  0  0  0  0  0  0  0  0  0  0
   60.9080  -11.3921   -5.7590 C   0  0  0  0  0  0  0  0  0  0  0  0
   62.2303  -11.1393   -6.0003 C   0  0  0  0  0  0  0  0  0  0  0  0
   63.1633  -11.5720   -5.0846 C   0  0  0  0  0  0  0  0  0  0  0  0
   62.7739  -12.2583   -3.9264 C   0  0  0  0  0  0  0  0  0  0  0  0
   63.9483  -12.8144   -2.7537 Cl  0  0  0  0  0  0  0  0  0  0  0  0
   62.5435   -7.5394   -8.6970 C   0  0  0  0  0  0  0  0  0  0  0  0
   61.5320   -6.9442   -7.9987 C   0  0  0  0  0  0  0  0  0  0  0  0
   60.6202   -6.2545   -8.6935 C   0  0  0  0  0  0  0  0  0  0  0  0
   60.7770   -6.2017  -10.0547 C   0  0  0  0  0  0  0  0  0  0  0  0
   62.1914   -7.1171  -10.3123 S   0  0  0  0  0  0  0  0  0  0  0  0
 11 12  1  0  0  0
 12 13  2  0  0  0
 13 14  1  0  0  0
 14 15  2  0  0  0
 15  1  1  0  0  0
  1  2  1  0  0  0
  2  3  1  0  0  0
  3 19  1  0  0  0
 19 20  2  0  0  0
 20 21  1  0  0  0
 21 22  2  0  0  0
 22 23  1  0  0  0
  3  4  1  0  0  0
  4  5  1  0  0  0
  5  6  2  0  0  0
  6  7  1  0  0  0
  7  8  2  0  0  0
  8  9  1  0  0  0
 15 16  1  0  0  0
 16 17  2  0  0  0
 17 18  1  0  0  0
 17 12  1  0  0  0
  9  1  1  0  0  0
 23 19  1  0  0  0
  8  4  1  0  0  0
  9 10  1  0  0  0
M  END
> <minimizedAffinity>
-2.54682

> <CNNscore>
0.4469765425

> <CNNaffinity>
4.8155794144

> <CNN_VS>
2.1524510384

> <CNNaffinity_variance>
0.3744365573

$$$$
[H]c1nc2n(n1)C([H])(c1sc([H])c([H])c1[H])C([H])([H])C([H])(c1c([H])c([H])c(Cl)c(Cl)c1[H])N2[H]


 23 26  0  0  0  0  0  0  0  0999 V2000
   61.7207   -8.3155   -6.4377 C   0  0  0  0  0  0  0  0  0  0  0  0
   62.7730   -8.5411   -5.4083 C   0  0  0  0  0  0  0  0  0  0  0  0
   62.2529   -9.2560   -4.2156 C   0  0  0  0  0  0  0  0  0  0  0  0
   60.9259   -8.8951   -3.8290 N   0  0  0  0  0  0  0  0  0  0  0  0
   60.2237   -9.2300   -2.7661 N   0  0  0  0  0  0  0  0  0  0  0  0
   59.0116   -8.6621   -2.7973 C   0  0  0  0  0  0  0  0  0  0  0  0
   58.9856   -7.9503   -3.9375 N   0  0  0  0  0  0  0  0  0  0  0  0
   60.1482   -8.0730   -4.5946 C   0  0  0  0  0  0  0  0  0  0  0  0
   60.6552   -7.5531   -5.8171 N   0  0  0  0  0  0  0  0  0  0  0  0
   60.2397   -6.6798   -6.1799 H   0  0  0  0  0  0  0  0  0  0  0  0
   63.8789   -5.8063  -11.4371 Cl  0  0  0  0  0  0  0  0  0  0  0  0
   63.2342   -6.5278   -9.9820 C   0  0  0  0  0  0  0  0  0  0  0  0
   61.9819   -6.1695   -9.5406 C   0  0  0  0  0  0  0  0  0  0  0  0
   61.4908   -6.7642   -8.3713 C   0  0  0  0  0  0  0  0  0  0  0  0
   62.2206   -7.6820   -7.6674 C   0  0  0  0  0  0  0  0  0  0  0  0
   63.4719   -8.0251   -8.1286 C   0  0  0  0  0  0  0  0  0  0  0  0
   63.9942   -7.4499   -9.2949 C   0  0  0  0  0  0  0  0  0  0  0  0
   65.5831   -7.8760   -9.8932 Cl  0  0  0  0  0  0  0  0  0  0  0  0
   62.3176  -10.7569   -4.3711 C   0  0  0  0  0  0  0  0  0  0  0  0
   62.7224  -11.4624   -5.4681 C   0  0  0  0  0  0  0  0  0  0  0  0
   62.6992  -12.7978   -5.3905 C   0  0  0  0  0  0  0  0  0  0  0  0
   62.2692  -13.3503   -4.2114 C   0  0  0  0  0  0  0  0  0  0  0  0
   61.9139  -11.9840   -3.2564 S   0  0  0  0  0  0  0  0  0  0  0  0
 11 12  1  0  0  0
 12 13  2  0  0  0
 13 14  1  0  0  0
 14 15  2  0  0  0
 15  1  1  0  0  0
  1  2  1  0  0  0
  2  3  1  0  0  0
  3 19  1  0  0  0
 19 20  2  0  0  0
 20 21  1  0  0  0
 21 22  2  0  0  0
 22 23  1  0  0  0
  3  4  1  0  0  0
  4  5  1  0  0  0
  5  6  2  0  0  0
  6  7  1  0  0  0
  7  8  2  0  0  0
  8  9  1  0  0  0
 15 16  1  0  0  0
 16 17  2  0  0  0
 17 18  1  0  0  0
 17 12  1  0  0  0
  9  1  1  0  0  0
 23 19  1  0  0  0
  8  4  1  0  0  0
  9 10  1  0  0  0
M  END
> <minimizedAffinity>
-2.21132

> <CNNscore>
0.4172002077

> <CNNaffinity>
4.9701294899

> <CNN_VS>
2.0735390186

> <CNNaffinity_variance>
0.8967159986

$$$$
[H]c1nc2n(n1)C([H])(c1sc([H])c([H])c1[H])C([H])([H])C([H])(c1c([H])c([H])c(Cl)c(Cl)c1[H])N2[H]


 23 26  0  0  0  0  0  0  0  0999 V2000
   58.8995   -4.4153  -12.7602 C   0  0  0  0  0  0  0  0  0  0  0  0
   58.0007   -5.4696  -13.3066 C   0  0  0  0  0  0  0  0  0  0  0  0
   56.5658   -5.1104  -13.1801 C   0  0  0  0  0  0  0  0  0  0  0  0
   56.2229   -4.4159  -11.9798 N   0  0  0  0  0  0  0  0  0  0  0  0
   55.0467   -4.0722  -11.4967 N   0  0  0  0  0  0  0  0  0  0  0  0
   55.1802   -3.4287  -10.3301 C   0  0  0  0  0  0  0  0  0  0  0  0
   56.5044   -3.3841  -10.1021 N   0  0  0  0  0  0  0  0  0  0  0  0
   57.1731   -3.9828  -11.0985 C   0  0  0  0  0  0  0  0  0  0  0  0
   58.5494   -4.2181  -11.3673 N   0  0  0  0  0  0  0  0  0  0  0  0
   59.2022   -4.2334  -10.5669 H   0  0  0  0  0  0  0  0  0  0  0  0
   64.7315   -5.5065  -13.6234 Cl  0  0  0  0  0  0  0  0  0  0  0  0
   63.0321   -5.1992  -13.3566 C   0  0  0  0  0  0  0  0  0  0  0  0
   62.3952   -5.7769  -12.2832 C   0  0  0  0  0  0  0  0  0  0  0  0
   61.0327   -5.5126  -12.0942 C   0  0  0  0  0  0  0  0  0  0  0  0
   60.3303   -4.7028  -12.9435 C   0  0  0  0  0  0  0  0  0  0  0  0
   60.9892   -4.1356  -14.0113 C   0  0  0  0  0  0  0  0  0  0  0  0
   62.3519   -4.3783  -14.2303 C   0  0  0  0  0  0  0  0  0  0  0  0
   63.2028   -3.6644  -15.5833 Cl  0  0  0  0  0  0  0  0  0  0  0  0
   56.0676   -4.3087  -14.3591 C   0  0  0  0  0  0  0  0  0  0  0  0
   56.2133   -4.6019  -15.6850 C   0  0  0  0  0  0  0  0  0  0  0  0
   55.6912   -3.7460  -16.5709 C   0  0  0  0  0  0  0  0  0  0  0  0
   55.0503   -2.6408  -16.0728 C   0  0  0  0  0  0  0  0  0  0  0  0
   55.2012   -2.8390  -14.3867 S   0  0  0  0  0  0  0  0  0  0  0  0
 11 12  1  0  0  0
 12 13  2  0  0  0
 13 14  1  0  0  0
 14 15  2  0  0  0
 15  1  1  0  0  0
  1  2  1  0  0  0
  2  3  1  0  0  0
  3 19  1  0  0  0
 19 20  2  0  0  0
 20 21  1  0  0  0
 21 22  2  0  0  0
 22 23  1  0  0  0
  3  4  1  0  0  0
  4  5  1  0  0  0
  5  6  2  0  0  0
  6  7  1  0  0  0
  7  8  2  0  0  0
  8  9  1  0  0  0
 15 16  1  0  0  0
 16 17  2  0  0  0
 17 18  1  0  0  0
 17 12  1  0  0  0
  9  1  1  0  0  0
 23 19  1  0  0  0
  8  4  1  0  0  0
  9 10  1  0  0  0
M  END
> <minimizedAffinity>
7.41734

> <CNNscore>
0.4136224985

> <CNNaffinity>
4.7142281532

> <CNN_VS>
1.9499108791

> <CNNaffinity_variance>
0.2164005488

$$$$
[H]c1nc2n(n1)C([H])(c1sc([H])c([H])c1[H])C([H])([H])C([H])(c1c([H])c([H])c(Cl)c(Cl)c1[H])N2[H]


 23 26  0  0  0  0  0  0  0  0999 V2000
   57.2080   -5.1190   -8.7981 C   0  0  0  0  0  0  0  0  0  0  0  0
   57.2031   -4.2461   -7.5915 C   0  0  0  0  0  0  0  0  0  0  0  0
   55.8294   -3.9568   -7.1087 C   0  0  0  0  0  0  0  0  0  0  0  0
   54.8553   -3.7765   -8.1380 N   0  0  0  0  0  0  0  0  0  0  0  0
   53.5991   -3.3866   -8.0681 N   0  0  0  0  0  0  0  0  0  0  0  0
   53.0424   -3.3520   -9.2853 C   0  0  0  0  0  0  0  0  0  0  0  0
   54.0147   -3.7411  -10.1283 N   0  0  0  0  0  0  0  0  0  0  0  0
   55.1421   -4.0094   -9.4535 C   0  0  0  0  0  0  0  0  0  0  0  0
   56.4416   -4.4474   -9.8293 N   0  0  0  0  0  0  0  0  0  0  0  0
   56.7526   -4.2627  -10.7968 H   0  0  0  0  0  0  0  0  0  0  0  0
   62.7326   -6.6811  -10.5264 Cl  0  0  0  0  0  0  0  0  0  0  0  0
   61.1186   -6.2203  -10.0401 C   0  0  0  0  0  0  0  0  0  0  0  0
   60.2554   -5.6823  -10.9656 C   0  0  0  0  0  0  0  0  0  0  0  0
   58.9679   -5.3223  -10.5473 C   0  0  0  0  0  0  0  0  0  0  0  0
   58.5557   -5.4919   -9.2544 C   0  0  0  0  0  0  0  0  0  0  0  0
   59.4375   -6.0327   -8.3455 C   0  0  0  0  0  0  0  0  0  0  0  0
   60.7331   -6.4041   -8.7296 C   0  0  0  0  0  0  0  0  0  0  0  0
   61.8649   -7.0924   -7.5854 Cl  0  0  0  0  0  0  0  0  0  0  0  0
   55.3247   -5.0064   -6.1470 C   0  0  0  0  0  0  0  0  0  0  0  0
   55.5683   -5.0910   -4.8060 C   0  0  0  0  0  0  0  0  0  0  0  0
   55.0192   -6.1123   -4.1386 C   0  0  0  0  0  0  0  0  0  0  0  0
   54.2540   -6.9932   -4.8589 C   0  0  0  0  0  0  0  0  0  0  0  0
   54.3307   -6.3618   -6.4402 S   0  0  0  0  0  0  0  0  0  0  0  0
 11 12  1  0  0  0
 12 13  2  0  0  0
 13 14  1  0  0  0
 14 15  2  0  0  0
 15  1  1  0  0  0
  1  2  1  0  0  0
  2  3  1  0  0  0
  3 19  1  0  0  0
 19 20  2  0  0  0
 20 21  1  0  0  0
 21 22  2  0  0  0
 22 23  1  0  0  0
  3  4  1  0  0  0
  4  5  1  0  0  0
  5  6  2  0  0  0
  6  7  1  0  0  0
  7  8  2  0  0  0
  8  9  1  0  0  0
 15 16  1  0  0  0
 16 17  2  0  0  0
 17 18  1  0  0  0
 17 12  1  0  0  0
  9  1  1  0  0  0
 23 19  1  0  0  0
  8  4  1  0  0  0
  9 10  1  0  0  0
M  END
> <minimizedAffinity>
-5.53022

> <CNNscore>
0.3432791531

> <CNNaffinity>
5.8581404686

> <CNN_VS>
2.0109775066

> <CNNaffinity_variance>
0.2495242804

$$$$
[H]c1nc2n(n1)C([H])(c1sc([H])c([H])c1[H])C([H])([H])C([H])(c1c([H])c([H])c(Cl)c(Cl)c1[H])N2[H]


 23 26  0  0  0  0  0  0  0  0999 V2000
   55.4571   -4.3468   -9.9203 C   0  0  0  0  0  0  0  0  0  0  0  0
   56.0237   -3.2019  -10.6859 C   0  0  0  0  0  0  0  0  0  0  0  0
   57.2036   -3.5933  -11.4974 C   0  0  0  0  0  0  0  0  0  0  0  0
   58.0659   -4.5519  -10.8822 N   0  0  0  0  0  0  0  0  0  0  0  0
   59.2427   -5.0091  -11.2578 N   0  0  0  0  0  0  0  0  0  0  0  0
   59.7079   -5.9061  -10.3793 C   0  0  0  0  0  0  0  0  0  0  0  0
   58.7616   -5.9911   -9.4283 N   0  0  0  0  0  0  0  0  0  0  0  0
   57.7386   -5.1704   -9.7086 C   0  0  0  0  0  0  0  0  0  0  0  0
   56.5069   -4.8668   -9.0664 N   0  0  0  0  0  0  0  0  0  0  0  0
   56.4387   -5.0332   -8.0492 H   0  0  0  0  0  0  0  0  0  0  0  0
   50.5137   -3.0887   -6.7695 Cl  0  0  0  0  0  0  0  0  0  0  0  0
   51.9506   -3.4412   -7.6994 C   0  0  0  0  0  0  0  0  0  0  0  0
   52.2524   -2.6783   -8.8031 C   0  0  0  0  0  0  0  0  0  0  0  0
   53.4107   -2.9839   -9.5292 C   0  0  0  0  0  0  0  0  0  0  0  0
   54.2377   -4.0119   -9.1691 C   0  0  0  0  0  0  0  0  0  0  0  0
   53.9150   -4.7618   -8.0602 C   0  0  0  0  0  0  0  0  0  0  0  0
   52.7640   -4.4839   -7.3106 C   0  0  0  0  0  0  0  0  0  0  0  0
   52.3409   -5.4285   -5.8991 Cl  0  0  0  0  0  0  0  0  0  0  0  0
   56.8173   -4.1018  -12.8660 C   0  0  0  0  0  0  0  0  0  0  0  0
   56.0587   -5.1982  -13.1620 C   0  0  0  0  0  0  0  0  0  0  0  0
   55.8385   -5.4704  -14.4532 C   0  0  0  0  0  0  0  0  0  0  0  0
   56.3947   -4.6229  -15.3767 C   0  0  0  0  0  0  0  0  0  0  0  0
   57.2037   -3.4786  -14.4067 S   0  0  0  0  0  0  0  0  0  0  0  0
 11 12  1  0  0  0
 12 13  2  0  0  0
 13 14  1  0  0  0
 14 15  2  0  0  0
 15  1  1  0  0  0
  1  2  1  0  0  0
  2  3  1  0  0  0
  3 19  1  0  0  0
 19 20  2  0  0  0
 20 21  1  0  0  0
 21 22  2  0  0  0
 22 23  1  0  0  0
  3  4  1  0  0  0
  4  5  1  0  0  0
  5  6  2  0  0  0
  6  7  1  0  0  0
  7  8  2  0  0  0
  8  9  1  0  0  0
 15 16  1  0  0  0
 16 17  2  0  0  0
 17 18  1  0  0  0
 17 12  1  0  0  0
  9  1  1  0  0  0
 23 19  1  0  0  0
  8  4  1  0  0  0
  9 10  1  0  0  0
M  END
> <minimizedAffinity>
-7.88167

> <CNNscore>
0.3387534916

> <CNNaffinity>
6.1244459152

> <CNN_VS>
2.0746774673

> <CNNaffinity_variance>
0.0576699674

$$$$
[H]c1nc([H])c2c(c1[H])c1c([H])nc(N([H])c3nnc(N([H])C([H])([H])C4([H])C([H])([H])N([H])C4([H])[H])c([H])c3[H])nc1n2C1([H])C([H])([H])C([H])([H])C([H])([H])C1([H])[H]


 34 39  0  0  0  0  0  0  0  0999 V2000
   48.8432   -2.8335   -5.3245 C   0  0  0  0  0  0  0  0  0  0  0  0
   49.6444   -2.5360   -6.4123 C   0  0  0  0  0  0  0  0  0  0  0  0
   50.7638   -3.2990   -6.6648 C   0  0  0  0  0  0  0  0  0  0  0  0
   51.7058   -3.2204   -7.6519 C   0  0  0  0  0  0  0  0  0  0  0  0
   51.9146   -2.3869   -8.7483 C   0  0  0  0  0  0  0  0  0  0  0  0
   52.9794   -2.6036   -9.5359 N   0  0  0  0  0  0  0  0  0  0  0  0
   53.8737   -3.5935   -9.3286 C   0  0  0  0  0  0  0  0  0  0  0  0
   53.6953   -4.4108   -8.2790 N   0  0  0  0  0  0  0  0  0  0  0  0
   52.6316   -4.2226   -7.4619 C   0  0  0  0  0  0  0  0  0  0  0  0
   52.2374   -4.9068   -6.3484 N   0  0  0  0  0  0  0  0  0  0  0  0
   51.1176   -4.3608   -5.8622 C   0  0  0  0  0  0  0  0  0  0  0  0
   50.2962   -4.6293   -4.7863 C   0  0  0  0  0  0  0  0  0  0  0  0
   49.2170   -3.8813   -4.5563 N   0  0  0  0  0  0  0  0  0  0  0  0
   52.9133   -6.0463   -5.7710 C   0  0  0  0  0  0  0  0  0  0  0  0
   53.6954   -5.7000   -4.5303 C   0  0  0  0  0  0  0  0  0  0  0  0
   54.9379   -6.5444   -4.5490 C   0  0  0  0  0  0  0  0  0  0  0  0
   55.0453   -7.1802   -5.8991 C   0  0  0  0  0  0  0  0  0  0  0  0
   53.8567   -6.7249   -6.7127 C   0  0  0  0  0  0  0  0  0  0  0  0
   54.9887   -3.7549  -10.2235 N   0  0  0  0  0  0  0  0  0  0  0  0
   54.8906   -3.4221  -11.2069 H   0  0  0  0  0  0  0  0  0  0  0  0
   56.2016   -4.3488   -9.8026 C   0  0  0  0  0  0  0  0  0  0  0  0
   56.5292   -4.5489   -8.4811 C   0  0  0  0  0  0  0  0  0  0  0  0
   57.7280   -5.1345   -8.1024 C   0  0  0  0  0  0  0  0  0  0  0  0
   58.6235   -5.5308   -9.0730 C   0  0  0  0  0  0  0  0  0  0  0  0
   58.2575   -5.3135  -10.3603 N   0  0  0  0  0  0  0  0  0  0  0  0
   57.1100   -4.7536  -10.7039 N   0  0  0  0  0  0  0  0  0  0  0  0
   59.8702   -6.1374   -8.7564 N   0  0  0  0  0  0  0  0  0  0  0  0
   60.0993   -6.3575   -7.7774 H   0  0  0  0  0  0  0  0  0  0  0  0
   60.8146   -6.4450   -9.8065 C   0  0  0  0  0  0  0  0  0  0  0  0
   61.8201   -7.4872   -9.3674 C   0  0  0  0  0  0  0  0  0  0  0  0
   61.8343   -7.6620   -7.8651 C   0  0  0  0  0  0  0  0  0  0  0  0
   61.8817   -9.1112   -8.0460 N   0  0  0  0  0  0  0  0  0  0  0  0
   61.2928   -8.9000   -9.3688 C   0  0  0  0  0  0  0  0  0  0  0  0
   61.1703   -9.5844   -7.4307 H   0  0  0  0  0  0  0  0  0  0  0  0
  1  2  2  0  0  0
  2  3  1  0  0  0
  3  4  1  0  0  0
  4  5  2  0  0  0
  5  6  1  0  0  0
  6  7  2  0  0  0
  7 19  1  0  0  0
 19 21  1  0  0  0
 21 22  2  0  0  0
 22 23  1  0  0  0
 23 24  2  0  0  0
 24 27  1  0  0  0
 27 29  1  0  0  0
 29 30  1  0  0  0
 30 31  1  0  0  0
 31 32  1  0  0  0
 32 33  1  0  0  0
 24 25  1  0  0  0
 25 26  2  0  0  0
  7  8  1  0  0  0
  8  9  2  0  0  0
  9 10  1  0  0  0
 10 14  1  0  0  0
 14 15  1  0  0  0
 15 16  1  0  0  0
 16 17  1  0  0  0
 17 18  1  0  0  0
 10 11  1  0  0  0
 11 12  1  0  0  0
 12 13  2  0  0  0
 13  1  1  0  0  0
 11  3  2  0  0  0
  9  4  1  0  0  0
 18 14  1  0  0  0
 26 21  1  0  0  0
 33 30  1  0  0  0
 19 20  1  0  0  0
 27 28  1  0  0  0
 32 34  1  0  0  0
M  END
> <minimizedAffinity>
-11.13570

> <CNNscore>
0.9382296801

> <CNNaffinity>
7.7859659195

> <CNN_VS>
7.3050241470

> <CNNaffinity_variance>
0.0621835887

$$$$
[H]c1nc([H])c2c(c1[H])c1c([H])nc(N([H])c3nnc(N([H])C([H])([H])C4([H])C([H])([H])N([H])C4([H])[H])c([H])c3[H])nc1n2C1([H])C([H])([H])C([H])([H])C([H])([H])C1([H])[H]


 34 39  0  0  0  0  0  0  0  0999 V2000
   57.5950   -4.3175  -10.9689 C   0  0  0  0  0  0  0  0  0  0  0  0
   56.2857   -3.9458  -10.7213 C   0  0  0  0  0  0  0  0  0  0  0  0
   55.6931   -4.2889   -9.5253 C   0  0  0  0  0  0  0  0  0  0  0  0
   54.4385   -4.0505   -9.0386 C   0  0  0  0  0  0  0  0  0  0  0  0
   53.3039   -3.4006   -9.5191 C   0  0  0  0  0  0  0  0  0  0  0  0
   52.2061   -3.3545   -8.7486 N   0  0  0  0  0  0  0  0  0  0  0  0
   52.1318   -3.9068   -7.5189 C   0  0  0  0  0  0  0  0  0  0  0  0
   53.2114   -4.5388   -7.0325 N   0  0  0  0  0  0  0  0  0  0  0  0
   54.3377   -4.6056   -7.7818 C   0  0  0  0  0  0  0  0  0  0  0  0
   55.5463   -5.1819   -7.5159 N   0  0  0  0  0  0  0  0  0  0  0  0
   56.3669   -4.9976   -8.5556 C   0  0  0  0  0  0  0  0  0  0  0  0
   57.6710   -5.3519   -8.8358 C   0  0  0  0  0  0  0  0  0  0  0  0
   58.2291   -5.0120   -9.9977 N   0  0  0  0  0  0  0  0  0  0  0  0
   55.9008   -5.8855   -6.3043 C   0  0  0  0  0  0  0  0  0  0  0  0
   55.0801   -7.1302   -6.0853 C   0  0  0  0  0  0  0  0  0  0  0  0
   54.8484   -7.2442   -4.6052 C   0  0  0  0  0  0  0  0  0  0  0  0
   55.2759   -5.9590   -3.9695 C   0  0  0  0  0  0  0  0  0  0  0  0
   55.7774   -5.0520   -5.0685 C   0  0  0  0  0  0  0  0  0  0  0  0
   50.9137   -3.8107   -6.7593 N   0  0  0  0  0  0  0  0  0  0  0  0
   50.1193   -3.2658   -7.1584 H   0  0  0  0  0  0  0  0  0  0  0  0
   50.7724   -4.4328   -5.4967 C   0  0  0  0  0  0  0  0  0  0  0  0
   49.8036   -4.0838   -4.5839 C   0  0  0  0  0  0  0  0  0  0  0  0
   49.6927   -4.7146   -3.3537 C   0  0  0  0  0  0  0  0  0  0  0  0
   50.5757   -5.7222   -3.0282 C   0  0  0  0  0  0  0  0  0  0  0  0
   51.5124   -6.0311   -3.9585 N   0  0  0  0  0  0  0  0  0  0  0  0
   51.6040   -5.4193   -5.1271 N   0  0  0  0  0  0  0  0  0  0  0  0
   50.5198   -6.4112   -1.7854 N   0  0  0  0  0  0  0  0  0  0  0  0
   49.6178   -6.5267   -1.3032 H   0  0  0  0  0  0  0  0  0  0  0  0
   51.7267   -6.9492   -1.1993 C   0  0  0  0  0  0  0  0  0  0  0  0
   51.4717   -8.2699   -0.5060 C   0  0  0  0  0  0  0  0  0  0  0  0
   51.2505   -9.3938   -1.4935 C   0  0  0  0  0  0  0  0  0  0  0  0
   52.1114  -10.2561   -0.6870 N   0  0  0  0  0  0  0  0  0  0  0  0
   52.7202   -9.0378   -0.1518 C   0  0  0  0  0  0  0  0  0  0  0  0
   52.8166  -10.7478   -1.2948 H   0  0  0  0  0  0  0  0  0  0  0  0
  1  2  2  0  0  0
  2  3  1  0  0  0
  3  4  1  0  0  0
  4  5  2  0  0  0
  5  6  1  0  0  0
  6  7  2  0  0  0
  7 19  1  0  0  0
 19 21  1  0  0  0
 21 22  2  0  0  0
 22 23  1  0  0  0
 23 24  2  0  0  0
 24 27  1  0  0  0
 27 29  1  0  0  0
 29 30  1  0  0  0
 30 31  1  0  0  0
 31 32  1  0  0  0
 32 33  1  0  0  0
 24 25  1  0  0  0
 25 26  2  0  0  0
  7  8  1  0  0  0
  8  9  2  0  0  0
  9 10  1  0  0  0
 10 14  1  0  0  0
 14 15  1  0  0  0
 15 16  1  0  0  0
 16 17  1  0  0  0
 17 18  1  0  0  0
 10 11  1  0  0  0
 11 12  1  0  0  0
 12 13  2  0  0  0
 13  1  1  0  0  0
 11  3  2  0  0  0
  9  4  1  0  0  0
 18 14  1  0  0  0
 26 21  1  0  0  0
 33 30  1  0  0  0
 19 20  1  0  0  0
 27 28  1  0  0  0
 32 34  1  0  0  0
M  END
> <minimizedAffinity>
-9.85329

> <CNNscore>
0.8204014897

> <CNNaffinity>
7.8397469521

> <CNN_VS>
6.4317402840

> <CNNaffinity_variance>
0.1820397079

$$$$
[H]c1nc([H])c2c(c1[H])c1c([H])nc(N([H])c3nnc(N([H])C([H])([H])C4([H])C([H])([H])N([H])C4([H])[H])c([H])c3[H])nc1n2C1([H])C([H])([H])C([H])([H])C([H])([H])C1([H])[H]


 34 39  0  0  0  0  0  0  0  0999 V2000
   48.9253   -4.6141   -3.8708 C   0  0  0  0  0  0  0  0  0  0  0  0
   49.4649   -4.1615   -5.0616 C   0  0  0  0  0  0  0  0  0  0  0  0
   50.7632   -4.4864   -5.3899 C   0  0  0  0  0  0  0  0  0  0  0  0
   51.5229   -4.1746   -6.4825 C   0  0  0  0  0  0  0  0  0  0  0  0
   51.3143   -3.4428   -7.6492 C   0  0  0  0  0  0  0  0  0  0  0  0
   52.3141   -3.3383   -8.5383 N   0  0  0  0  0  0  0  0  0  0  0  0
   53.5271   -3.9067   -8.3698 C   0  0  0  0  0  0  0  0  0  0  0  0
   53.7538   -4.6173   -7.2539 N   0  0  0  0  0  0  0  0  0  0  0  0
   52.7681   -4.7446   -6.3338 C   0  0  0  0  0  0  0  0  0  0  0  0
   52.7511   -5.4039   -5.1386 N   0  0  0  0  0  0  0  0  0  0  0  0
   51.5526   -5.2554   -4.5641 C   0  0  0  0  0  0  0  0  0  0  0  0
   50.9827   -5.6897   -3.3847 C   0  0  0  0  0  0  0  0  0  0  0  0
   49.7252   -5.3665   -3.0822 N   0  0  0  0  0  0  0  0  0  0  0  0
   53.8486   -6.1513   -4.5679 C   0  0  0  0  0  0  0  0  0  0  0  0
   55.0369   -5.2875   -4.2322 C   0  0  0  0  0  0  0  0  0  0  0  0
   56.2644   -6.1037   -4.5227 C   0  0  0  0  0  0  0  0  0  0  0  0
   55.8407   -7.3248   -5.2763 C   0  0  0  0  0  0  0  0  0  0  0  0
   54.3410   -7.2582   -5.4451 C   0  0  0  0  0  0  0  0  0  0  0  0
   54.5438   -3.7443   -9.3748 N   0  0  0  0  0  0  0  0  0  0  0  0
   54.3078   -3.2142  -10.2412 H   0  0  0  0  0  0  0  0  0  0  0  0
   55.8422   -4.2822   -9.2143 C   0  0  0  0  0  0  0  0  0  0  0  0
   56.6416   -4.6607  -10.2685 C   0  0  0  0  0  0  0  0  0  0  0  0
   57.9109   -5.1852  -10.0760 C   0  0  0  0  0  0  0  0  0  0  0  0
   58.3934   -5.3351   -8.7932 C   0  0  0  0  0  0  0  0  0  0  0  0
   57.5706   -4.9488   -7.7872 N   0  0  0  0  0  0  0  0  0  0  0  0
   56.3627   -4.4504   -7.9887 N   0  0  0  0  0  0  0  0  0  0  0  0
   59.6849   -5.8657   -8.5229 N   0  0  0  0  0  0  0  0  0  0  0  0
   60.0225   -5.9238   -7.5522 H   0  0  0  0  0  0  0  0  0  0  0  0
   60.5230   -6.3231   -9.6081 C   0  0  0  0  0  0  0  0  0  0  0  0
   61.6405   -7.2160   -9.1144 C   0  0  0  0  0  0  0  0  0  0  0  0
   61.6420   -7.3393   -7.6070 C   0  0  0  0  0  0  0  0  0  0  0  0
   61.8744   -8.7761   -7.7365 N   0  0  0  0  0  0  0  0  0  0  0  0
   61.2942   -8.6831   -9.0767 C   0  0  0  0  0  0  0  0  0  0  0  0
   61.2138   -9.3150   -7.1187 H   0  0  0  0  0  0  0  0  0  0  0  0
  1  2  2  0  0  0
  2  3  1  0  0  0
  3  4  1  0  0  0
  4  5  2  0  0  0
  5  6  1  0  0  0
  6  7  2  0  0  0
  7 19  1  0  0  0
 19 21  1  0  0  0
 21 22  2  0  0  0
 22 23  1  0  0  0
 23 24  2  0  0  0
 24 27  1  0  0  0
 27 29  1  0  0  0
 29 30  1  0  0  0
 30 31  1  0  0  0
 31 32  1  0  0  0
 32 33  1  0  0  0
 24 25  1  0  0  0
 25 26  2  0  0  0
  7  8  1  0  0  0
  8  9  2  0  0  0
  9 10  1  0  0  0
 10 14  1  0  0  0
 14 15  1  0  0  0
 15 16  1  0  0  0
 16 17  1  0  0  0
 17 18  1  0  0  0
 10 11  1  0  0  0
 11 12  1  0  0  0
 12 13  2  0  0  0
 13  1  1  0  0  0
 11  3  2  0  0  0
  9  4  1  0  0  0
 18 14  1  0  0  0
 26 21  1  0  0  0
 33 30  1  0  0  0
 19 20  1  0  0  0
 27 28  1  0  0  0
 32 34  1  0  0  0
M  END
> <minimizedAffinity>
-9.08894

> <CNNscore>
0.7675164938

> <CNNaffinity>
7.6195983887

> <CNN_VS>
5.8481674194

> <CNNaffinity_variance>
0.2471951246

$$$$
[H]c1nc([H])c2c(c1[H])c1c([H])nc(N([H])c3nnc(N([H])C([H])([H])C4([H])C([H])([H])N([H])C4([H])[H])c([H])c3[H])nc1n2C1([H])C([H])([H])C([H])([H])C([H])([H])C1([H])[H]


 34 39  0  0  0  0  0  0  0  0999 V2000
   49.6214   -3.0964   -6.5056 C   0  0  0  0  0  0  0  0  0  0  0  0
   50.6409   -2.9813   -7.4336 C   0  0  0  0  0  0  0  0  0  0  0  0
   51.7727   -3.7568   -7.3042 C   0  0  0  0  0  0  0  0  0  0  0  0
   52.9039   -3.8369   -8.0670 C   0  0  0  0  0  0  0  0  0  0  0  0
   53.3573   -3.2065   -9.2235 C   0  0  0  0  0  0  0  0  0  0  0  0
   54.5602   -3.5397   -9.7163 N   0  0  0  0  0  0  0  0  0  0  0  0
   55.3700   -4.4614   -9.1528 C   0  0  0  0  0  0  0  0  0  0  0  0
   54.9566   -5.0835   -8.0376 N   0  0  0  0  0  0  0  0  0  0  0  0
   53.7479   -4.7731   -7.5111 C   0  0  0  0  0  0  0  0  0  0  0  0
   53.1128   -5.2568   -6.4039 N   0  0  0  0  0  0  0  0  0  0  0  0
   51.9267   -4.6537   -6.2705 C   0  0  0  0  0  0  0  0  0  0  0  0
   50.8906   -4.7427   -5.3633 C   0  0  0  0  0  0  0  0  0  0  0  0
   49.8026   -3.9852   -5.5031 N   0  0  0  0  0  0  0  0  0  0  0  0
   53.6277   -6.2643   -5.5046 C   0  0  0  0  0  0  0  0  0  0  0  0
   54.2465   -5.6813   -4.2604 C   0  0  0  0  0  0  0  0  0  0  0  0
   55.4239   -6.5473   -3.9128 C   0  0  0  0  0  0  0  0  0  0  0  0
   55.6813   -7.4637   -5.0671 C   0  0  0  0  0  0  0  0  0  0  0  0
   54.6506   -7.1594   -6.1287 C   0  0  0  0  0  0  0  0  0  0  0  0
   56.6458   -4.7583   -9.7479 N   0  0  0  0  0  0  0  0  0  0  0  0
   57.3474   -5.2861   -9.1852 H   0  0  0  0  0  0  0  0  0  0  0  0
   56.9652   -4.3541  -11.0654 C   0  0  0  0  0  0  0  0  0  0  0  0
   56.0307   -4.2292  -12.0676 C   0  0  0  0  0  0  0  0  0  0  0  0
   56.3779   -3.8303  -13.3497 C   0  0  0  0  0  0  0  0  0  0  0  0
   57.6968   -3.5488  -13.6365 C   0  0  0  0  0  0  0  0  0  0  0  0
   58.5811   -3.6859  -12.6180 N   0  0  0  0  0  0  0  0  0  0  0  0
   58.2327   -4.0675  -11.4009 N   0  0  0  0  0  0  0  0  0  0  0  0
   58.1232   -3.1349  -14.9285 N   0  0  0  0  0  0  0  0  0  0  0  0
   57.6061   -2.3978  -15.4274 H   0  0  0  0  0  0  0  0  0  0  0  0
   59.2805   -3.7469  -15.5411 C   0  0  0  0  0  0  0  0  0  0  0  0
   60.3515   -2.7261  -15.8588 C   0  0  0  0  0  0  0  0  0  0  0  0
   61.6131   -2.9621  -15.0587 C   0  0  0  0  0  0  0  0  0  0  0  0
   62.4069   -2.7208  -16.2615 N   0  0  0  0  0  0  0  0  0  0  0  0
   61.2207   -3.0827  -17.0382 C   0  0  0  0  0  0  0  0  0  0  0  0
   63.1332   -3.4733  -16.3828 H   0  0  0  0  0  0  0  0  0  0  0  0
  1  2  2  0  0  0
  2  3  1  0  0  0
  3  4  1  0  0  0
  4  5  2  0  0  0
  5  6  1  0  0  0
  6  7  2  0  0  0
  7 19  1  0  0  0
 19 21  1  0  0  0
 21 22  2  0  0  0
 22 23  1  0  0  0
 23 24  2  0  0  0
 24 27  1  0  0  0
 27 29  1  0  0  0
 29 30  1  0  0  0
 30 31  1  0  0  0
 31 32  1  0  0  0
 32 33  1  0  0  0
 24 25  1  0  0  0
 25 26  2  0  0  0
  7  8  1  0  0  0
  8  9  2  0  0  0
  9 10  1  0  0  0
 10 14  1  0  0  0
 14 15  1  0  0  0
 15 16  1  0  0  0
 16 17  1  0  0  0
 17 18  1  0  0  0
 10 11  1  0  0  0
 11 12  1  0  0  0
 12 13  2  0  0  0
 13  1  1  0  0  0
 11  3  2  0  0  0
  9  4  1  0  0  0
 18 14  1  0  0  0
 26 21  1  0  0  0
 33 30  1  0  0  0
 19 20  1  0  0  0
 27 28  1  0  0  0
 32 34  1  0  0  0
M  END
> <minimizedAffinity>
-8.91103

> <CNNscore>
0.5291551948

> <CNNaffinity>
7.1676111221

> <CNN_VS>
3.7927787304

> <CNNaffinity_variance>
0.2951501012

$$$$
[H]c1nc([H])c2c(c1[H])c1c([H])nc(N([H])c3nnc(N([H])C([H])([H])C4([H])C([H])([H])N([H])C4([H])[H])c([H])c3[H])nc1n2C1([H])C([H])([H])C([H])([H])C([H])([H])C1([H])[H]


 34 39  0  0  0  0  0  0  0  0999 V2000
   53.7673   -6.9612   -3.1617 C   0  0  0  0  0  0  0  0  0  0  0  0
   54.5088   -6.6251   -4.2802 C   0  0  0  0  0  0  0  0  0  0  0  0
   53.9107   -5.9390   -5.3150 C   0  0  0  0  0  0  0  0  0  0  0  0
   54.4063   -5.4942   -6.5084 C   0  0  0  0  0  0  0  0  0  0  0  0
   55.6475   -5.5454   -7.1386 C   0  0  0  0  0  0  0  0  0  0  0  0
   55.7844   -4.9864   -8.3510 N   0  0  0  0  0  0  0  0  0  0  0  0
   54.7793   -4.3684   -9.0073 C   0  0  0  0  0  0  0  0  0  0  0  0
   53.5732   -4.3053   -8.4218 N   0  0  0  0  0  0  0  0  0  0  0  0
   53.3973   -4.8585   -7.1981 C   0  0  0  0  0  0  0  0  0  0  0  0
   52.2869   -4.9252   -6.4068 N   0  0  0  0  0  0  0  0  0  0  0  0
   52.5841   -5.5715   -5.2744 C   0  0  0  0  0  0  0  0  0  0  0  0
   51.8746   -5.9228   -4.1441 C   0  0  0  0  0  0  0  0  0  0  0  0
   52.4684   -6.5864   -3.1521 N   0  0  0  0  0  0  0  0  0  0  0  0
   50.9849   -4.3862   -6.7275 C   0  0  0  0  0  0  0  0  0  0  0  0
   51.0566   -3.0730   -7.4631 C   0  0  0  0  0  0  0  0  0  0  0  0
   49.9066   -2.2377   -6.9760 C   0  0  0  0  0  0  0  0  0  0  0  0
   49.3183   -2.9138   -5.7780 C   0  0  0  0  0  0  0  0  0  0  0  0
   50.1116   -4.1755   -5.5316 C   0  0  0  0  0  0  0  0  0  0  0  0
   55.0132   -3.7951  -10.3060 N   0  0  0  0  0  0  0  0  0  0  0  0
   54.2354   -3.2782  -10.7699 H   0  0  0  0  0  0  0  0  0  0  0  0
   56.2619   -3.9163  -10.9596 C   0  0  0  0  0  0  0  0  0  0  0  0
   57.3740   -4.4749  -10.3724 C   0  0  0  0  0  0  0  0  0  0  0  0
   58.5841   -4.5783  -11.0420 C   0  0  0  0  0  0  0  0  0  0  0  0
   58.6839   -4.1097  -12.3348 C   0  0  0  0  0  0  0  0  0  0  0  0
   57.5628   -3.5680  -12.8713 N   0  0  0  0  0  0  0  0  0  0  0  0
   56.4166   -3.4772  -12.2184 N   0  0  0  0  0  0  0  0  0  0  0  0
   59.8929   -4.1837  -13.0800 N   0  0  0  0  0  0  0  0  0  0  0  0
   60.4547   -5.0460  -13.0614 H   0  0  0  0  0  0  0  0  0  0  0  0
   60.3330   -3.0511  -13.8628 C   0  0  0  0  0  0  0  0  0  0  0  0
   61.5900   -3.3654  -14.6446 C   0  0  0  0  0  0  0  0  0  0  0  0
   62.7553   -2.5037  -14.2121 C   0  0  0  0  0  0  0  0  0  0  0  0
   63.6206   -3.6809  -14.2390 N   0  0  0  0  0  0  0  0  0  0  0  0
   62.4136   -4.4913  -14.0720 C   0  0  0  0  0  0  0  0  0  0  0  0
   64.1924   -3.7402  -13.3570 H   0  0  0  0  0  0  0  0  0  0  0  0
  1  2  2  0  0  0
  2  3  1  0  0  0
  3  4  1  0  0  0
  4  5  2  0  0  0
  5  6  1  0  0  0
  6  7  2  0  0  0
  7 19  1  0  0  0
 19 21  1  0  0  0
 21 22  2  0  0  0
 22 23  1  0  0  0
 23 24  2  0  0  0
 24 27  1  0  0  0
 27 29  1  0  0  0
 29 30  1  0  0  0
 30 31  1  0  0  0
 31 32  1  0  0  0
 32 33  1  0  0  0
 24 25  1  0  0  0
 25 26  2  0  0  0
  7  8  1  0  0  0
  8  9  2  0  0  0
  9 10  1  0  0  0
 10 14  1  0  0  0
 14 15  1  0  0  0
 15 16  1  0  0  0
 16 17  1  0  0  0
 17 18  1  0  0  0
 10 11  1  0  0  0
 11 12  1  0  0  0
 12 13  2  0  0  0
 13  1  1  0  0  0
 11  3  2  0  0  0
  9  4  1  0  0  0
 18 14  1  0  0  0
 26 21  1  0  0  0
 33 30  1  0  0  0
 19 20  1  0  0  0
 27 28  1  0  0  0
 32 34  1  0  0  0
M  END
> <minimizedAffinity>
-9.42360

> <CNNscore>
0.4321557879

> <CNNaffinity>
6.9067854881

> <CNN_VS>
2.9848072529

> <CNNaffinity_variance>
0.2491448671

$$$$
[H]c1nc([H])c2c(c1[H])c1c([H])nc(N([H])c3nnc(N([H])C([H])([H])C4([H])C([H])([H])N([H])C4([H])[H])c([H])c3[H])nc1n2C1([H])C([H])([H])C([H])([H])C([H])([H])C1([H])[H]


 34 39  0  0  0  0  0  0  0  0999 V2000
   49.7043   -4.5915   -6.2671 C   0  0  0  0  0  0  0  0  0  0  0  0
   50.5792   -4.1996   -7.2643 C   0  0  0  0  0  0  0  0  0  0  0  0
   51.9219   -4.4869   -7.1463 C   0  0  0  0  0  0  0  0  0  0  0  0
   52.9782   -4.2183   -7.9709 C   0  0  0  0  0  0  0  0  0  0  0  0
   53.1293   -3.5806   -9.2001 C   0  0  0  0  0  0  0  0  0  0  0  0
   54.3545   -3.4933   -9.7407 N   0  0  0  0  0  0  0  0  0  0  0  0
   55.4659   -3.9923   -9.1588 C   0  0  0  0  0  0  0  0  0  0  0  0
   55.3475   -4.6117   -7.9739 N   0  0  0  0  0  0  0  0  0  0  0  0
   54.1264   -4.7189   -7.3977 C   0  0  0  0  0  0  0  0  0  0  0  0
   53.7507   -5.2927   -6.2174 N   0  0  0  0  0  0  0  0  0  0  0  0
   52.4297   -5.1591   -6.0569 C   0  0  0  0  0  0  0  0  0  0  0  0
   51.5290   -5.5350   -5.0813 C   0  0  0  0  0  0  0  0  0  0  0  0
   50.2334   -5.2492   -5.2110 N   0  0  0  0  0  0  0  0  0  0  0  0
   54.6304   -5.9471   -5.2759 C   0  0  0  0  0  0  0  0  0  0  0  0
   55.6277   -5.0061   -4.6506 C   0  0  0  0  0  0  0  0  0  0  0  0
   56.9053   -5.7775   -4.4781 C   0  0  0  0  0  0  0  0  0  0  0  0
   56.7750   -7.0635   -5.2315 C   0  0  0  0  0  0  0  0  0  0  0  0
   55.4047   -7.0820   -5.8673 C   0  0  0  0  0  0  0  0  0  0  0  0
   56.7421   -3.8546   -9.8086 N   0  0  0  0  0  0  0  0  0  0  0  0
   56.8910   -3.0442  -10.4477 H   0  0  0  0  0  0  0  0  0  0  0  0
   57.7876   -4.7847   -9.6012 C   0  0  0  0  0  0  0  0  0  0  0  0
   57.9053   -5.5522   -8.4652 C   0  0  0  0  0  0  0  0  0  0  0  0
   58.9437   -6.4554   -8.2937 C   0  0  0  0  0  0  0  0  0  0  0  0
   59.8904   -6.5940   -9.2864 C   0  0  0  0  0  0  0  0  0  0  0  0
   59.7332   -5.8173  -10.3865 N   0  0  0  0  0  0  0  0  0  0  0  0
   58.7366   -4.9609  -10.5338 N   0  0  0  0  0  0  0  0  0  0  0  0
   60.9809   -7.5004   -9.1771 N   0  0  0  0  0  0  0  0  0  0  0  0
   61.2668   -7.8492   -8.2519 H   0  0  0  0  0  0  0  0  0  0  0  0
   61.6871   -7.9319  -10.3622 C   0  0  0  0  0  0  0  0  0  0  0  0
   62.3992   -6.7812  -11.0395 C   0  0  0  0  0  0  0  0  0  0  0  0
   63.8551   -6.7017  -10.6375 C   0  0  0  0  0  0  0  0  0  0  0  0
   64.2152   -6.4611  -12.0331 N   0  0  0  0  0  0  0  0  0  0  0  0
   62.9563   -7.1098  -12.4018 C   0  0  0  0  0  0  0  0  0  0  0  0
   65.0137   -7.0836  -12.3219 H   0  0  0  0  0  0  0  0  0  0  0  0
  1  2  2  0  0  0
  2  3  1  0  0  0
  3  4  1  0  0  0
  4  5  2  0  0  0
  5  6  1  0  0  0
  6  7  2  0  0  0
  7 19  1  0  0  0
 19 21  1  0  0  0
 21 22  2  0  0  0
 22 23  1  0  0  0
 23 24  2  0  0  0
 24 27  1  0  0  0
 27 29  1  0  0  0
 29 30  1  0  0  0
 30 31  1  0  0  0
 31 32  1  0  0  0
 32 33  1  0  0  0
 24 25  1  0  0  0
 25 26  2  0  0  0
  7  8  1  0  0  0
  8  9  2  0  0  0
  9 10  1  0  0  0
 10 14  1  0  0  0
 14 15  1  0  0  0
 15 16  1  0  0  0
 16 17  1  0  0  0
 17 18  1  0  0  0
 10 11  1  0  0  0
 11 12  1  0  0  0
 12 13  2  0  0  0
 13  1  1  0  0  0
 11  3  2  0  0  0
  9  4  1  0  0  0
 18 14  1  0  0  0
 26 21  1  0  0  0
 33 30  1  0  0  0
 19 20  1  0  0  0
 27 28  1  0  0  0
 32 34  1  0  0  0
M  END
> <minimizedAffinity>
-6.32269

> <CNNscore>
0.4124217033

> <CNNaffinity>
6.8445091248

> <CNN_VS>
2.8228240013

> <CNNaffinity_variance>
0.3751931190

$$$$
[H]c1nc([H])c2c(c1[H])c1c([H])nc(N([H])c3nnc(N([H])C([H])([H])C4([H])C([H])([H])N([H])C4([H])[H])c([H])c3[H])nc1n2C1([H])C([H])([H])C([H])([H])C([H])([H])C1([H])[H]


 34 39  0  0  0  0  0  0  0  0999 V2000
   49.3253   -4.3289   -5.2816 C   0  0  0  0  0  0  0  0  0  0  0  0
   50.2817   -4.1351   -6.2620 C   0  0  0  0  0  0  0  0  0  0  0  0
   51.5558   -4.6277   -6.0798 C   0  0  0  0  0  0  0  0  0  0  0  0
   52.6659   -4.5755   -6.8753 C   0  0  0  0  0  0  0  0  0  0  0  0
   52.9552   -4.0353   -8.1263 C   0  0  0  0  0  0  0  0  0  0  0  0
   54.1941   -4.1742   -8.6234 N   0  0  0  0  0  0  0  0  0  0  0  0
   55.1918   -4.8141   -7.9770 C   0  0  0  0  0  0  0  0  0  0  0  0
   54.9391   -5.3437   -6.7699 N   0  0  0  0  0  0  0  0  0  0  0  0
   53.7001   -5.2233   -6.2361 C   0  0  0  0  0  0  0  0  0  0  0  0
   53.2010   -5.6669   -5.0455 N   0  0  0  0  0  0  0  0  0  0  0  0
   51.9151   -5.3148   -4.9417 C   0  0  0  0  0  0  0  0  0  0  0  0
   50.9364   -5.4899   -3.9846 C   0  0  0  0  0  0  0  0  0  0  0  0
   49.7088   -5.0070   -4.1766 N   0  0  0  0  0  0  0  0  0  0  0  0
   53.9344   -6.4041   -4.0418 C   0  0  0  0  0  0  0  0  0  0  0  0
   54.9017   -5.5441   -3.2699 C   0  0  0  0  0  0  0  0  0  0  0  0
   56.1106   -6.3914   -2.9908 C   0  0  0  0  0  0  0  0  0  0  0  0
   56.0002   -7.6392   -3.8090 C   0  0  0  0  0  0  0  0  0  0  0  0
   54.7112   -7.5575   -4.5925 C   0  0  0  0  0  0  0  0  0  0  0  0
   56.4924   -4.9171   -8.5836 N   0  0  0  0  0  0  0  0  0  0  0  0
   57.2981   -5.2075   -7.9887 H   0  0  0  0  0  0  0  0  0  0  0  0
   56.6992   -4.6360   -9.9545 C   0  0  0  0  0  0  0  0  0  0  0  0
   57.8971   -4.8440  -10.5987 C   0  0  0  0  0  0  0  0  0  0  0  0
   58.0662   -4.5574  -11.9451 C   0  0  0  0  0  0  0  0  0  0  0  0
   57.0071   -4.0485  -12.6664 C   0  0  0  0  0  0  0  0  0  0  0  0
   55.8475   -3.8605  -11.9896 N   0  0  0  0  0  0  0  0  0  0  0  0
   55.7036   -4.1393  -10.7052 N   0  0  0  0  0  0  0  0  0  0  0  0
   57.1099   -3.7323  -14.0492 N   0  0  0  0  0  0  0  0  0  0  0  0
   57.8176   -3.0569  -14.3695 H   0  0  0  0  0  0  0  0  0  0  0  0
   56.2232   -4.3575  -15.0041 C   0  0  0  0  0  0  0  0  0  0  0  0
   56.6759   -4.1188  -16.4282 C   0  0  0  0  0  0  0  0  0  0  0  0
   55.8764   -3.0249  -17.1002 C   0  0  0  0  0  0  0  0  0  0  0  0
   57.1130   -2.4773  -17.6535 N   0  0  0  0  0  0  0  0  0  0  0  0
   57.8214   -3.1473  -16.5623 C   0  0  0  0  0  0  0  0  0  0  0  0
   57.1591   -1.4369  -17.4982 H   0  0  0  0  0  0  0  0  0  0  0  0
  1  2  2  0  0  0
  2  3  1  0  0  0
  3  4  1  0  0  0
  4  5  2  0  0  0
  5  6  1  0  0  0
  6  7  2  0  0  0
  7 19  1  0  0  0
 19 21  1  0  0  0
 21 22  2  0  0  0
 22 23  1  0  0  0
 23 24  2  0  0  0
 24 27  1  0  0  0
 27 29  1  0  0  0
 29 30  1  0  0  0
 30 31  1  0  0  0
 31 32  1  0  0  0
 32 33  1  0  0  0
 24 25  1  0  0  0
 25 26  2  0  0  0
  7  8  1  0  0  0
  8  9  2  0  0  0
  9 10  1  0  0  0
 10 14  1  0  0  0
 14 15  1  0  0  0
 15 16  1  0  0  0
 16 17  1  0  0  0
 17 18  1  0  0  0
 10 11  1  0  0  0
 11 12  1  0  0  0
 12 13  2  0  0  0
 13  1  1  0  0  0
 11  3  2  0  0  0
  9  4  1  0  0  0
 18 14  1  0  0  0
 26 21  1  0  0  0
 33 30  1  0  0  0
 19 20  1  0  0  0
 27 28  1  0  0  0
 32 34  1  0  0  0
M  END
> <minimizedAffinity>
-8.78585

> <CNNscore>
0.3696001768

> <CNNaffinity>
7.1070852280

> <CNN_VS>
2.6267800331

> <CNNaffinity_variance>
0.1239307895

$$$$
[H]c1nc([H])c2c(c1[H])c1c([H])nc(N([H])c3nnc(N([H])C([H])([H])C4([H])C([H])([H])N([H])C4([H])[H])c([H])c3[H])nc1n2C1([H])C([H])([H])C([H])([H])C([H])([H])C1([H])[H]


 34 39  0  0  0  0  0  0  0  0999 V2000
   55.9804   -7.4101   -2.5128 C   0  0  0  0  0  0  0  0  0  0  0  0
   56.3396   -6.8686   -3.7341 C   0  0  0  0  0  0  0  0  0  0  0  0
   55.3609   -6.4579   -4.6131 C   0  0  0  0  0  0  0  0  0  0  0  0
   55.4424   -5.9009   -5.8585 C   0  0  0  0  0  0  0  0  0  0  0  0
   56.4854   -5.5380   -6.7075 C   0  0  0  0  0  0  0  0  0  0  0  0
   56.1940   -4.9979   -7.9010 N   0  0  0  0  0  0  0  0  0  0  0  0
   54.9345   -4.7813   -8.3362 C   0  0  0  0  0  0  0  0  0  0  0  0
   53.9113   -5.1221   -7.5371 N   0  0  0  0  0  0  0  0  0  0  0  0
   54.1670   -5.6699   -6.3251 C   0  0  0  0  0  0  0  0  0  0  0  0
   53.3149   -6.0941   -5.3467 N   0  0  0  0  0  0  0  0  0  0  0  0
   54.0210   -6.5688   -4.3149 C   0  0  0  0  0  0  0  0  0  0  0  0
   53.6987   -7.1132   -3.0884 C   0  0  0  0  0  0  0  0  0  0  0  0
   54.6577   -7.5055   -2.2497 N   0  0  0  0  0  0  0  0  0  0  0  0
   51.8715   -6.0452   -5.4009 C   0  0  0  0  0  0  0  0  0  0  0  0
   51.3363   -6.0155   -6.8093 C   0  0  0  0  0  0  0  0  0  0  0  0
   50.1250   -5.1269   -6.7962 C   0  0  0  0  0  0  0  0  0  0  0  0
   50.0876   -4.4147   -5.4809 C   0  0  0  0  0  0  0  0  0  0  0  0
   51.2834   -4.8739   -4.6802 C   0  0  0  0  0  0  0  0  0  0  0  0
   54.7114   -4.1967   -9.6318 N   0  0  0  0  0  0  0  0  0  0  0  0
   53.7600   -3.8345   -9.8579 H   0  0  0  0  0  0  0  0  0  0  0  0
   55.7436   -4.1037  -10.5946 C   0  0  0  0  0  0  0  0  0  0  0  0
   57.0373   -4.5099  -10.3607 C   0  0  0  0  0  0  0  0  0  0  0  0
   58.0261   -4.4046  -11.3276 C   0  0  0  0  0  0  0  0  0  0  0  0
   57.7112   -3.8783  -12.5624 C   0  0  0  0  0  0  0  0  0  0  0  0
   56.4247   -3.4920  -12.7464 N   0  0  0  0  0  0  0  0  0  0  0  0
   55.4942   -3.5995  -11.8133 N   0  0  0  0  0  0  0  0  0  0  0  0
   58.6746   -3.7413  -13.5995 N   0  0  0  0  0  0  0  0  0  0  0  0
   59.6626   -3.9628  -13.4142 H   0  0  0  0  0  0  0  0  0  0  0  0
   58.2686   -3.2923  -14.9121 C   0  0  0  0  0  0  0  0  0  0  0  0
   59.3546   -3.5175  -15.9416 C   0  0  0  0  0  0  0  0  0  0  0  0
   59.4701   -2.3573  -16.9049 C   0  0  0  0  0  0  0  0  0  0  0  0
   60.9255   -2.4234  -16.7915 N   0  0  0  0  0  0  0  0  0  0  0  0
   60.7297   -3.0837  -15.5004 C   0  0  0  0  0  0  0  0  0  0  0  0
   61.3275   -1.4649  -16.6237 H   0  0  0  0  0  0  0  0  0  0  0  0
  1  2  2  0  0  0
  2  3  1  0  0  0
  3  4  1  0  0  0
  4  5  2  0  0  0
  5  6  1  0  0  0
  6  7  2  0  0  0
  7 19  1  0  0  0
 19 21  1  0  0  0
 21 22  2  0  0  0
 22 23  1  0  0  0
 23 24  2  0  0  0
 24 27  1  0  0  0
 27 29  1  0  0  0
 29 30  1  0  0  0
 30 31  1  0  0  0
 31 32  1  0  0  0
 32 33  1  0  0  0
 24 25  1  0  0  0
 25 26  2  0  0  0
  7  8  1  0  0  0
  8  9  2  0  0  0
  9 10  1  0  0  0
 10 14  1  0  0  0
 14 15  1  0  0  0
 15 16  1  0  0  0
 16 17  1  0  0  0
 17 18  1  0  0  0
 10 11  1  0  0  0
 11 12  1  0  0  0
 12 13  2  0  0  0
 13  1  1  0  0  0
 11  3  2  0  0  0
  9  4  1  0  0  0
 18 14  1  0  0  0
 26 21  1  0  0  0
 33 30  1  0  0  0
 19 20  1  0  0  0
 27 28  1  0  0  0
 32 34  1  0  0  0
M  END
> <minimizedAffinity>
-7.70353

> <CNNscore>
0.3497840166

> <CNNaffinity>
6.8288078308

> <CNN_VS>
2.3886077404

> <CNNaffinity_variance>
0.1664897352

$$$$
[H]c1nc([H])c2c(c1[H])c1c([H])nc(N([H])c3nnc(N([H])C([H])([H])C4([H])C([H])([H])N([H])C4([H])[H])c([H])c3[H])nc1n2C1([H])C([H])([H])C([H])([H])C([H])([H])C1([H])[H]


 34 39  0  0  0  0  0  0  0  0999 V2000
   56.1182   -6.0016   -4.7720 C   0  0  0  0  0  0  0  0  0  0  0  0
   56.7116   -5.7672   -5.9995 C   0  0  0  0  0  0  0  0  0  0  0  0
   55.9518   -5.2890   -7.0450 C   0  0  0  0  0  0  0  0  0  0  0  0
   56.2837   -4.9788   -8.3340 C   0  0  0  0  0  0  0  0  0  0  0  0
   57.4574   -5.0144   -9.0833 C   0  0  0  0  0  0  0  0  0  0  0  0
   57.4209   -4.6247  -10.3670 N   0  0  0  0  0  0  0  0  0  0  0  0
   56.3012   -4.1940  -10.9862 C   0  0  0  0  0  0  0  0  0  0  0  0
   55.1568   -4.1501  -10.2863 N   0  0  0  0  0  0  0  0  0  0  0  0
   55.1551   -4.5358   -8.9880 C   0  0  0  0  0  0  0  0  0  0  0  0
   54.1382   -4.5823   -8.0785 N   0  0  0  0  0  0  0  0  0  0  0  0
   54.6055   -5.0329   -6.9093 C   0  0  0  0  0  0  0  0  0  0  0  0
   54.0463   -5.2778   -5.6716 C   0  0  0  0  0  0  0  0  0  0  0  0
   54.7956   -5.7404   -4.6708 N   0  0  0  0  0  0  0  0  0  0  0  0
   52.7644   -4.2067   -8.3242 C   0  0  0  0  0  0  0  0  0  0  0  0
   52.5977   -2.7352   -8.6029 C   0  0  0  0  0  0  0  0  0  0  0  0
   51.2961   -2.3186   -7.9788 C   0  0  0  0  0  0  0  0  0  0  0  0
   50.8213   -3.4382   -7.1072 C   0  0  0  0  0  0  0  0  0  0  0  0
   51.8382   -4.5513   -7.2014 C   0  0  0  0  0  0  0  0  0  0  0  0
   56.3511   -3.7943  -12.3674 N   0  0  0  0  0  0  0  0  0  0  0  0
   55.4560   -3.5749  -12.8553 H   0  0  0  0  0  0  0  0  0  0  0  0
   57.5749   -3.6937  -13.0698 C   0  0  0  0  0  0  0  0  0  0  0  0
   58.8067   -3.7564  -12.4596 C   0  0  0  0  0  0  0  0  0  0  0  0
   59.9883   -3.6542  -13.1786 C   0  0  0  0  0  0  0  0  0  0  0  0
   59.9355   -3.4844  -14.5458 C   0  0  0  0  0  0  0  0  0  0  0  0
   58.7005   -3.4285  -15.1024 N   0  0  0  0  0  0  0  0  0  0  0  0
   57.5836   -3.5277  -14.4017 N   0  0  0  0  0  0  0  0  0  0  0  0
   61.1067   -3.3724  -15.3446 N   0  0  0  0  0  0  0  0  0  0  0  0
   61.8303   -2.6824  -15.0998 H   0  0  0  0  0  0  0  0  0  0  0  0
   61.2822   -4.2253  -16.4984 C   0  0  0  0  0  0  0  0  0  0  0  0
   62.4932   -5.1211  -16.3533 C   0  0  0  0  0  0  0  0  0  0  0  0
   62.6203   -5.6781  -14.9529 C   0  0  0  0  0  0  0  0  0  0  0  0
   62.9396   -6.9882  -15.5157 N   0  0  0  0  0  0  0  0  0  0  0  0
   62.2520   -6.5600  -16.7344 C   0  0  0  0  0  0  0  0  0  0  0  0
   62.3675   -7.7400  -15.0510 H   0  0  0  0  0  0  0  0  0  0  0  0
  1  2  2  0  0  0
  2  3  1  0  0  0
  3  4  1  0  0  0
  4  5  2  0  0  0
  5  6  1  0  0  0
  6  7  2  0  0  0
  7 19  1  0  0  0
 19 21  1  0  0  0
 21 22  2  0  0  0
 22 23  1  0  0  0
 23 24  2  0  0  0
 24 27  1  0  0  0
 27 29  1  0  0  0
 29 30  1  0  0  0
 30 31  1  0  0  0
 31 32  1  0  0  0
 32 33  1  0  0  0
 24 25  1  0  0  0
 25 26  2  0  0  0
  7  8  1  0  0  0
  8  9  2  0  0  0
  9 10  1  0  0  0
 10 14  1  0  0  0
 14 15  1  0  0  0
 15 16  1  0  0  0
 16 17  1  0  0  0
 17 18  1  0  0  0
 10 11  1  0  0  0
 11 12  1  0  0  0
 12 13  2  0  0  0
 13  1  1  0  0  0
 11  3  2  0  0  0
  9  4  1  0  0  0
 18 14  1  0  0  0
 26 21  1  0  0  0
 33 30  1  0  0  0
 19 20  1  0  0  0
 27 28  1  0  0  0
 32 34  1  0  0  0
M  END
> <minimizedAffinity>
-8.76820

> <CNNscore>
0.3012067676

> <CNNaffinity>
6.6691770554

> <CNN_VS>
2.0088012218

> <CNNaffinity_variance>
0.2971737981

$$$$
[H]Oc1c([H])c([H])c(C([H])([H])[C@@]2([H])C(=O)N(C([H])([H])c3c([H])c([H])c([H])c4c(C(=O)N([H])c5c([H])nc(N6C([H])([H])C([H])([H])C([H])(N7C([H])([H])C([H])([H])C7([H])[H])C([H])([H])C6([H])[H])c([H])c5[H])c([H])n(C([H])([H])[H])c34)C([H])([H])[C@]3([H])N(C(=O)N([H])C([H])([H])c4c([H])c([H])c([H])c([H])c4[H])N(C([H])([H])C([H])=C([H])[H])C([H])([H])C(=O)N23)c([H])c1[H]


 66 74  0  0  0  0  0  0  0  0999 V2000
   52.0761   -5.4492   -5.2504 N   0  0  0  0  0  0  0  0  0  0  0  0
   51.5541   -5.4933   -3.8963 C   0  0  0  0  0  0  0  0  0  0  0  0
   52.2486   -6.7176   -3.3239 C   0  0  0  0  0  0  0  0  0  0  0  0
   51.5264   -7.5716   -2.7785 O   0  0  0  0  0  0  0  0  0  0  0  0
   53.6354   -6.8244   -3.4289 N   0  0  0  0  0  0  0  0  0  0  0  0
   54.3825   -7.6146   -2.4924 C   0  0  0  0  0  0  0  0  0  0  0  0
   55.0402   -6.5610   -1.6324 C   0  0  0  0  0  0  0  0  0  0  0  0
   55.0960   -6.6806   -0.4204 O   0  0  0  0  0  0  0  0  0  0  0  0
   55.5843   -5.4415   -2.2924 N   0  0  0  0  0  0  0  0  0  0  0  0
   55.4470   -5.2444   -3.7560 C   0  0  0  0  0  0  0  0  0  0  0  0
   54.3816   -6.0682   -4.3994 C   0  0  0  0  0  0  0  0  0  0  0  0
   53.4860   -5.3902   -5.3083 N   0  0  0  0  0  0  0  0  0  0  0  0
   53.9915   -4.6032   -6.3892 C   0  0  0  0  0  0  0  0  0  0  0  0
   53.1288   -3.9910   -7.1048 O   0  0  0  0  0  0  0  0  0  0  0  0
   55.3302   -4.4265   -6.7598 N   0  0  0  0  0  0  0  0  0  0  0  0
   56.0862   -4.8839   -6.2498 H   0  0  0  0  0  0  0  0  0  0  0  0
   51.5442   -6.6525   -5.8722 C   0  0  0  0  0  0  0  0  0  0  0  0
   49.9607   -5.2651   -7.0806 C   0  0  0  0  0  0  0  0  0  0  0  0
   50.5255   -6.4233   -6.8687 C   0  0  0  0  0  0  0  0  0  0  0  0
   55.3630   -8.5865   -2.9969 C   0  0  0  0  0  0  0  0  0  0  0  0
   56.6330   -8.7680   -2.2895 C   0  0  0  0  0  0  0  0  0  0  0  0
   57.8412   -8.7478   -2.9887 C   0  0  0  0  0  0  0  0  0  0  0  0
   59.0348   -8.9836   -2.3408 C   0  0  0  0  0  0  0  0  0  0  0  0
   59.1070   -9.2509   -0.9882 C   0  0  0  0  0  0  0  0  0  0  0  0
   60.3368   -9.4761   -0.3993 O   0  0  0  0  0  0  0  0  0  0  0  0
   57.9262   -9.2732   -0.2999 C   0  0  0  0  0  0  0  0  0  0  0  0
   56.7106   -9.0364   -0.9414 C   0  0  0  0  0  0  0  0  0  0  0  0
   61.2067   -9.4547   -0.9202 H   0  0  0  0  0  0  0  0  0  0  0  0
   56.2970   -4.3584   -1.6125 C   0  0  0  0  0  0  0  0  0  0  0  0
   57.5553   -4.8764   -1.0665 C   0  0  0  0  0  0  0  0  0  0  0  0
   58.5780   -5.2901   -1.8795 C   0  0  0  0  0  0  0  0  0  0  0  0
   59.7467   -5.8332   -1.3738 C   0  0  0  0  0  0  0  0  0  0  0  0
   59.9074   -5.9701   -0.0072 C   0  0  0  0  0  0  0  0  0  0  0  0
   58.8691   -5.5489    0.8334 C   0  0  0  0  0  0  0  0  0  0  0  0
   58.7511   -5.5371    2.1828 C   0  0  0  0  0  0  0  0  0  0  0  0
   57.5323   -4.9908    2.4669 C   0  0  0  0  0  0  0  0  0  0  0  0
   56.8764   -4.6602    1.3406 N   0  0  0  0  0  0  0  0  0  0  0  0
   55.5678   -4.0610    1.2543 C   0  0  0  0  0  0  0  0  0  0  0  0
   57.7012   -5.0064    0.3112 C   0  0  0  0  0  0  0  0  0  0  0  0
   59.7042   -6.0375    3.2323 C   0  0  0  0  0  0  0  0  0  0  0  0
   59.8552   -5.3791    4.2834 O   0  0  0  0  0  0  0  0  0  0  0  0
   60.3624   -7.2468    2.9423 N   0  0  0  0  0  0  0  0  0  0  0  0
   60.7548   -7.2802    4.2653 H   0  0  0  0  0  0  0  0  0  0  0  0
   60.9815   -8.3671    2.6905 C   0  0  0  0  0  0  0  0  0  0  0  0
   62.2886   -8.3490    2.1613 C   0  0  0  0  0  0  0  0  0  0  0  0
   62.9975   -9.4533    1.8650 C   0  0  0  0  0  0  0  0  0  0  0  0
   62.4193  -10.6831    2.0822 C   0  0  0  0  0  0  0  0  0  0  0  0
   61.1684  -10.7834    2.5864 N   0  0  0  0  0  0  0  0  0  0  0  0
   60.4662   -9.6666    2.8871 C   0  0  0  0  0  0  0  0  0  0  0  0
   63.0954  -11.8964    1.7391 N   0  0  0  0  0  0  0  0  0  0  0  0
   62.3638  -13.1380    1.7915 C   0  0  0  0  0  0  0  0  0  0  0  0
   62.6769  -14.1250    0.7283 C   0  0  0  0  0  0  0  0  0  0  0  0
   63.8672  -13.8183   -0.1102 C   0  0  0  0  0  0  0  0  0  0  0  0
   64.9538  -13.0632    0.6485 C   0  0  0  0  0  0  0  0  0  0  0  0
   64.4855  -11.8672    1.3799 C   0  0  0  0  0  0  0  0  0  0  0  0
   64.4974  -14.9327   -0.7241 N   0  0  0  0  0  0  0  0  0  0  0  0
   64.8441  -16.0355    0.1135 C   0  0  0  0  0  0  0  0  0  0  0  0
   65.9695  -16.3381   -0.8554 C   0  0  0  0  0  0  0  0  0  0  0  0
   65.8188  -14.8635   -1.2238 C   0  0  0  0  0  0  0  0  0  0  0  0
   55.6989   -3.5907   -7.8991 C   0  0  0  0  0  0  0  0  0  0  0  0
   56.7268   -4.2907   -8.7541 C   0  0  0  0  0  0  0  0  0  0  0  0
   57.6948   -5.0391   -8.1707 C   0  0  0  0  0  0  0  0  0  0  0  0
   58.6772   -5.6564   -8.9851 C   0  0  0  0  0  0  0  0  0  0  0  0
   58.6338   -5.4844  -10.3682 C   0  0  0  0  0  0  0  0  0  0  0  0
   57.5847   -4.6840  -10.8629 C   0  0  0  0  0  0  0  0  0  0  0  0
   56.6576   -4.1045  -10.1109 C   0  0  0  0  0  0  0  0  0  0  0  0
 18 19  2  0  0  0
 19 17  1  0  0  0
 17  1  1  0  0  0
  1  2  1  0  0  0
  2  3  1  0  0  0
  3  4  2  0  0  0
  3  5  1  0  0  0
  5  6  1  0  0  0
  6 20  1  0  0  0
 20 21  1  0  0  0
 21 22  2  0  0  0
 22 23  1  0  0  0
 23 24  2  0  0  0
 24 25  1  0  0  0
 24 26  1  0  0  0
 26 27  2  0  0  0
  6  7  1  0  0  0
  7  8  2  0  0  0
  7  9  1  0  0  0
  9 29  1  0  0  0
 29 30  1  0  0  0
 30 31  2  0  0  0
 31 32  1  0  0  0
 32 33  2  0  0  0
 33 34  1  0  0  0
 34 35  1  0  0  0
 35 40  1  0  0  0
 40 41  2  0  0  0
 40 42  1  0  0  0
 42 44  1  0  0  0
 44 45  2  0  0  0
 45 46  1  0  0  0
 46 47  2  0  0  0
 47 50  1  0  0  0
 50 51  1  0  0  0
 51 52  1  0  0  0
 52 53  1  0  0  0
 53 56  1  0  0  0
 56 57  1  0  0  0
 57 58  1  0  0  0
 58 59  1  0  0  0
 53 54  1  0  0  0
 54 55  1  0  0  0
 47 48  1  0  0  0
 48 49  2  0  0  0
 35 36  2  0  0  0
 36 37  1  0  0  0
 37 38  1  0  0  0
 37 39  1  0  0  0
  9 10  1  0  0  0
 10 11  1  0  0  0
 11 12  1  0  0  0
 12 13  1  0  0  0
 13 14  2  0  0  0
 13 15  1  0  0  0
 15 60  1  0  0  0
 60 61  1  0  0  0
 61 62  2  0  0  0
 62 63  1  0  0  0
 63 64  2  0  0  0
 64 65  1  0  0  0
 65 66  2  0  0  0
 12  1  1  0  0  0
 66 61  1  0  0  0
 11  5  1  0  0  0
 27 21  1  0  0  0
 39 30  1  0  0  0
 39 34  2  0  0  0
 49 44  1  0  0  0
 55 50  1  0  0  0
 59 56  1  0  0  0
 25 28  1  0  0  0
 42 43  1  0  0  0
 15 16  1  0  0  0
M  END
> <minimizedAffinity>
-6.36712

> <CNNscore>
0.1641397178

> <CNNaffinity>
7.4307413101

> <CNN_VS>
1.2196798325

> <CNNaffinity_variance>
0.2736935616

$$$$
[H]Oc1c([H])c([H])c(C([H])([H])[C@@]2([H])C(=O)N(C([H])([H])c3c([H])c([H])c([H])c4c(C(=O)N([H])c5c([H])nc(N6C([H])([H])C([H])([H])C([H])(N7C([H])([H])C([H])([H])C7([H])[H])C([H])([H])C6([H])[H])c([H])c5[H])c([H])n(C([H])([H])[H])c34)C([H])([H])[C@]3([H])N(C(=O)N([H])C([H])([H])c4c([H])c([H])c([H])c([H])c4[H])N(C([H])([H])C([H])=C([H])[H])C([H])([H])C(=O)N23)c([H])c1[H]


 66 74  0  0  0  0  0  0  0  0999 V2000
   51.7140   -5.3966   -5.4195 N   0  0  0  0  0  0  0  0  0  0  0  0
   51.1838   -5.4017   -4.0679 C   0  0  0  0  0  0  0  0  0  0  0  0
   51.8601   -6.6199   -3.4619 C   0  0  0  0  0  0  0  0  0  0  0  0
   51.1245   -7.4517   -2.9004 O   0  0  0  0  0  0  0  0  0  0  0  0
   53.2461   -6.7459   -3.5561 N   0  0  0  0  0  0  0  0  0  0  0  0
   53.9781   -7.5220   -2.5963 C   0  0  0  0  0  0  0  0  0  0  0  0
   54.6437   -6.4559   -1.7580 C   0  0  0  0  0  0  0  0  0  0  0  0
   54.6911   -6.5467   -0.5432 O   0  0  0  0  0  0  0  0  0  0  0  0
   55.2051   -5.3593   -2.4416 N   0  0  0  0  0  0  0  0  0  0  0  0
   55.0786   -5.1961   -3.9104 C   0  0  0  0  0  0  0  0  0  0  0  0
   54.0070   -6.0224   -4.5400 C   0  0  0  0  0  0  0  0  0  0  0  0
   53.1248   -5.3560   -5.4704 N   0  0  0  0  0  0  0  0  0  0  0  0
   53.6460   -4.6016   -6.5670 C   0  0  0  0  0  0  0  0  0  0  0  0
   52.7949   -3.9966   -7.3023 O   0  0  0  0  0  0  0  0  0  0  0  0
   54.9888   -4.4499   -6.9337 N   0  0  0  0  0  0  0  0  0  0  0  0
   55.7363   -4.9039   -6.4083 H   0  0  0  0  0  0  0  0  0  0  0  0
   51.1711   -6.6082   -6.0153 C   0  0  0  0  0  0  0  0  0  0  0  0
   49.6556   -5.2568   -7.3456 C   0  0  0  0  0  0  0  0  0  0  0  0
   50.2598   -6.3910   -7.1133 C   0  0  0  0  0  0  0  0  0  0  0  0
   54.9497   -8.5176   -3.0712 C   0  0  0  0  0  0  0  0  0  0  0  0
   56.2495   -8.6360   -2.4060 C   0  0  0  0  0  0  0  0  0  0  0  0
   57.4321   -8.5266   -3.1398 C   0  0  0  0  0  0  0  0  0  0  0  0
   58.6573   -8.7026   -2.5331 C   0  0  0  0  0  0  0  0  0  0  0  0
   58.7873   -8.9941   -1.1899 C   0  0  0  0  0  0  0  0  0  0  0  0
   60.0461   -9.1560   -0.6429 O   0  0  0  0  0  0  0  0  0  0  0  0
   57.6318   -9.1036   -0.4677 C   0  0  0  0  0  0  0  0  0  0  0  0
   56.3849   -8.9281   -1.0674 C   0  0  0  0  0  0  0  0  0  0  0  0
   60.8966   -9.0700   -1.1886 H   0  0  0  0  0  0  0  0  0  0  0  0
   55.9270   -4.2687   -1.7839 C   0  0  0  0  0  0  0  0  0  0  0  0
   57.2041   -4.7749   -1.2714 C   0  0  0  0  0  0  0  0  0  0  0  0
   58.2633   -5.0321   -2.1020 C   0  0  0  0  0  0  0  0  0  0  0  0
   59.4531   -5.5635   -1.6346 C   0  0  0  0  0  0  0  0  0  0  0  0
   59.5980   -5.8499   -0.2895 C   0  0  0  0  0  0  0  0  0  0  0  0
   58.5224   -5.5893    0.5689 C   0  0  0  0  0  0  0  0  0  0  0  0
   58.3806   -5.7420    1.9075 C   0  0  0  0  0  0  0  0  0  0  0  0
   57.1270   -5.3025    2.2234 C   0  0  0  0  0  0  0  0  0  0  0  0
   56.4722   -4.8802    1.1275 N   0  0  0  0  0  0  0  0  0  0  0  0
   55.1322   -4.3501    1.0798 C   0  0  0  0  0  0  0  0  0  0  0  0
   57.3336   -5.0565    0.0851 C   0  0  0  0  0  0  0  0  0  0  0  0
   59.3433   -6.3069    2.9145 C   0  0  0  0  0  0  0  0  0  0  0  0
   60.1246   -5.5357    3.5113 O   0  0  0  0  0  0  0  0  0  0  0  0
   59.2797   -7.6978    3.1168 N   0  0  0  0  0  0  0  0  0  0  0  0
   60.0701   -7.5106    4.2330 H   0  0  0  0  0  0  0  0  0  0  0  0
   59.2347   -8.9860    3.3175 C   0  0  0  0  0  0  0  0  0  0  0  0
   60.1809   -9.8310    2.7015 C   0  0  0  0  0  0  0  0  0  0  0  0
   60.2048  -11.1682    2.8462 C   0  0  0  0  0  0  0  0  0  0  0  0
   59.2475  -11.7606    3.6377 C   0  0  0  0  0  0  0  0  0  0  0  0
   58.3050  -11.0179    4.2616 N   0  0  0  0  0  0  0  0  0  0  0  0
   58.2937   -9.6729    4.1147 C   0  0  0  0  0  0  0  0  0  0  0  0
   59.1815  -13.1814    3.7916 N   0  0  0  0  0  0  0  0  0  0  0  0
   57.9376  -13.7776    4.2122 C   0  0  0  0  0  0  0  0  0  0  0  0
   57.5926  -15.0779    3.5857 C   0  0  0  0  0  0  0  0  0  0  0  0
   58.6738  -15.7212    2.7911 C   0  0  0  0  0  0  0  0  0  0  0  0
   60.0696  -15.4172    3.3256 C   0  0  0  0  0  0  0  0  0  0  0  0
   60.3489  -13.9844    3.5573 C   0  0  0  0  0  0  0  0  0  0  0  0
   58.5875  -17.1317    2.6539 N   0  0  0  0  0  0  0  0  0  0  0  0
   58.3471  -17.6515    1.3462 C   0  0  0  0  0  0  0  0  0  0  0  0
   57.6764  -18.8384    2.0082 C   0  0  0  0  0  0  0  0  0  0  0  0
   57.4987  -17.8690    3.1751 C   0  0  0  0  0  0  0  0  0  0  0  0
   55.3742   -3.6465   -8.0906 C   0  0  0  0  0  0  0  0  0  0  0  0
   56.5418   -4.2808   -8.8061 C   0  0  0  0  0  0  0  0  0  0  0  0
   56.6150   -4.2285  -10.1587 C   0  0  0  0  0  0  0  0  0  0  0  0
   57.6965   -4.8647  -10.8181 C   0  0  0  0  0  0  0  0  0  0  0  0
   58.6643   -5.5327  -10.0688 C   0  0  0  0  0  0  0  0  0  0  0  0
   58.4845   -5.5240   -8.6711 C   0  0  0  0  0  0  0  0  0  0  0  0
   57.4786   -4.9287   -8.0427 C   0  0  0  0  0  0  0  0  0  0  0  0
 18 19  2  0  0  0
 19 17  1  0  0  0
 17  1  1  0  0  0
  1  2  1  0  0  0
  2  3  1  0  0  0
  3  4  2  0  0  0
  3  5  1  0  0  0
  5  6  1  0  0  0
  6 20  1  0  0  0
 20 21  1  0  0  0
 21 22  2  0  0  0
 22 23  1  0  0  0
 23 24  2  0  0  0
 24 25  1  0  0  0
 24 26  1  0  0  0
 26 27  2  0  0  0
  6  7  1  0  0  0
  7  8  2  0  0  0
  7  9  1  0  0  0
  9 29  1  0  0  0
 29 30  1  0  0  0
 30 31  2  0  0  0
 31 32  1  0  0  0
 32 33  2  0  0  0
 33 34  1  0  0  0
 34 35  1  0  0  0
 35 40  1  0  0  0
 40 41  2  0  0  0
 40 42  1  0  0  0
 42 44  1  0  0  0
 44 45  2  0  0  0
 45 46  1  0  0  0
 46 47  2  0  0  0
 47 50  1  0  0  0
 50 51  1  0  0  0
 51 52  1  0  0  0
 52 53  1  0  0  0
 53 56  1  0  0  0
 56 57  1  0  0  0
 57 58  1  0  0  0
 58 59  1  0  0  0
 53 54  1  0  0  0
 54 55  1  0  0  0
 47 48  1  0  0  0
 48 49  2  0  0  0
 35 36  2  0  0  0
 36 37  1  0  0  0
 37 38  1  0  0  0
 37 39  1  0  0  0
  9 10  1  0  0  0
 10 11  1  0  0  0
 11 12  1  0  0  0
 12 13  1  0  0  0
 13 14  2  0  0  0
 13 15  1  0  0  0
 15 60  1  0  0  0
 60 61  1  0  0  0
 61 62  2  0  0  0
 62 63  1  0  0  0
 63 64  2  0  0  0
 64 65  1  0  0  0
 65 66  2  0  0  0
 12  1  1  0  0  0
 66 61  1  0  0  0
 11  5  1  0  0  0
 27 21  1  0  0  0
 39 30  1  0  0  0
 39 34  2  0  0  0
 49 44  1  0  0  0
 55 50  1  0  0  0
 59 56  1  0  0  0
 25 28  1  0  0  0
 42 43  1  0  0  0
 15 16  1  0  0  0
M  END
> <minimizedAffinity>
-7.23742

> <CNNscore>
0.1384971142

> <CNNaffinity>
7.4455704689

> <CNN_VS>
1.0311900377

> <CNNaffinity_variance>
0.2307631075

$$$$
[H]Oc1c([H])c([H])c(C([H])([H])[C@@]2([H])C(=O)N(C([H])([H])c3c([H])c([H])c([H])c4c(C(=O)N([H])c5c([H])nc(N6C([H])([H])C([H])([H])C([H])(N7C([H])([H])C([H])([H])C7([H])[H])C([H])([H])C6([H])[H])c([H])c5[H])c([H])n(C([H])([H])[H])c34)C([H])([H])[C@]3([H])N(C(=O)N([H])C([H])([H])c4c([H])c([H])c([H])c([H])c4[H])N(C([H])([H])C([H])=C([H])[H])C([H])([H])C(=O)N23)c([H])c1[H]


 66 74  0  0  0  0  0  0  0  0999 V2000
   52.7018   -5.8651   -5.7824 N   0  0  0  0  0  0  0  0  0  0  0  0
   53.8195   -6.3230   -6.5881 C   0  0  0  0  0  0  0  0  0  0  0  0
   54.9678   -5.4862   -6.0499 C   0  0  0  0  0  0  0  0  0  0  0  0
   55.6524   -4.8663   -6.8839 O   0  0  0  0  0  0  0  0  0  0  0  0
   55.2009   -5.4550   -4.6751 N   0  0  0  0  0  0  0  0  0  0  0  0
   56.5084   -5.1639   -4.1600 C   0  0  0  0  0  0  0  0  0  0  0  0
   56.9819   -6.5206   -3.6936 C   0  0  0  0  0  0  0  0  0  0  0  0
   58.1215   -6.8982   -3.9054 O   0  0  0  0  0  0  0  0  0  0  0  0
   56.0511   -7.3236   -3.0054 N   0  0  0  0  0  0  0  0  0  0  0  0
   54.6390   -6.9103   -2.8172 C   0  0  0  0  0  0  0  0  0  0  0  0
   54.1822   -5.8181   -3.7260 C   0  0  0  0  0  0  0  0  0  0  0  0
   52.9144   -6.0059   -4.3933 N   0  0  0  0  0  0  0  0  0  0  0  0
   51.7356   -6.3344   -3.6546 C   0  0  0  0  0  0  0  0  0  0  0  0
   50.6735   -6.5417   -4.3328 O   0  0  0  0  0  0  0  0  0  0  0  0
   51.6073   -6.4529   -2.2653 N   0  0  0  0  0  0  0  0  0  0  0  0
   52.4017   -6.2969   -1.6445 H   0  0  0  0  0  0  0  0  0  0  0  0
   52.5270   -4.4762   -6.1798 C   0  0  0  0  0  0  0  0  0  0  0  0
   50.5952   -3.1525   -6.8189 C   0  0  0  0  0  0  0  0  0  0  0  0
   51.3450   -4.2117   -6.9647 C   0  0  0  0  0  0  0  0  0  0  0  0
   56.6536   -4.1513   -3.1045 C   0  0  0  0  0  0  0  0  0  0  0  0
   57.2901   -4.5135   -1.8357 C   0  0  0  0  0  0  0  0  0  0  0  0
   56.5210   -4.6930   -0.6845 C   0  0  0  0  0  0  0  0  0  0  0  0
   57.1185   -4.9687    0.5267 C   0  0  0  0  0  0  0  0  0  0  0  0
   58.4869   -5.0798    0.6731 C   0  0  0  0  0  0  0  0  0  0  0  0
   59.0221   -5.3606    1.9160 O   0  0  0  0  0  0  0  0  0  0  0  0
   59.2440   -4.9033   -0.4512 C   0  0  0  0  0  0  0  0  0  0  0  0
   58.6540   -4.6240   -1.6839 C   0  0  0  0  0  0  0  0  0  0  0  0
   58.4498   -5.4918    2.7428 H   0  0  0  0  0  0  0  0  0  0  0  0
   56.3632   -8.6398   -2.4456 C   0  0  0  0  0  0  0  0  0  0  0  0
   56.4608   -8.5333   -0.9866 C   0  0  0  0  0  0  0  0  0  0  0  0
   55.3767   -8.2106   -0.2130 C   0  0  0  0  0  0  0  0  0  0  0  0
   55.4722   -8.0522    1.1589 C   0  0  0  0  0  0  0  0  0  0  0  0
   56.6917   -8.2220    1.7884 C   0  0  0  0  0  0  0  0  0  0  0  0
   57.8063   -8.5539    1.0077 C   0  0  0  0  0  0  0  0  0  0  0  0
   59.0968   -8.7998    1.3384 C   0  0  0  0  0  0  0  0  0  0  0  0
   59.7498   -9.1028    0.1781 C   0  0  0  0  0  0  0  0  0  0  0  0
   58.9141   -9.0533   -0.8742 N   0  0  0  0  0  0  0  0  0  0  0  0
   59.2520   -9.3150   -2.2512 C   0  0  0  0  0  0  0  0  0  0  0  0
   57.6953   -8.7086   -0.3688 C   0  0  0  0  0  0  0  0  0  0  0  0
   59.7699   -8.7389    2.6812 C   0  0  0  0  0  0  0  0  0  0  0  0
   59.5146   -7.7872    3.4495 O   0  0  0  0  0  0  0  0  0  0  0  0
   60.6526   -9.7937    2.9777 N   0  0  0  0  0  0  0  0  0  0  0  0
   60.6484   -9.3495    4.2847 H   0  0  0  0  0  0  0  0  0  0  0  0
   61.4744  -10.7639    3.2698 C   0  0  0  0  0  0  0  0  0  0  0  0
   62.8122  -10.7149    2.8263 C   0  0  0  0  0  0  0  0  0  0  0  0
   63.7243  -11.6722    3.0741 C   0  0  0  0  0  0  0  0  0  0  0  0
   63.3378  -12.7758    3.7998 C   0  0  0  0  0  0  0  0  0  0  0  0
   62.0716  -12.8966    4.2593 N   0  0  0  0  0  0  0  0  0  0  0  0
   61.1635  -11.9250    4.0101 C   0  0  0  0  0  0  0  0  0  0  0  0
   64.2413  -13.8557    4.0533 N   0  0  0  0  0  0  0  0  0  0  0  0
   63.7020  -15.1733    4.2829 C   0  0  0  0  0  0  0  0  0  0  0  0
   64.4751  -16.3035    3.7107 C   0  0  0  0  0  0  0  0  0  0  0  0
   65.8252  -15.9644    3.1850 C   0  0  0  0  0  0  0  0  0  0  0  0
   66.4912  -14.8203    3.9426 C   0  0  0  0  0  0  0  0  0  0  0  0
   65.6556  -13.6120    4.1053 C   0  0  0  0  0  0  0  0  0  0  0  0
   66.7626  -17.0302    3.1489 N   0  0  0  0  0  0  0  0  0  0  0  0
   66.2524  -18.3584    3.2659 C   0  0  0  0  0  0  0  0  0  0  0  0
   67.5824  -18.7494    3.8783 C   0  0  0  0  0  0  0  0  0  0  0  0
   67.6752  -17.2602    4.2048 C   0  0  0  0  0  0  0  0  0  0  0  0
   50.3287   -6.7920   -1.6467 C   0  0  0  0  0  0  0  0  0  0  0  0
   50.4515   -8.0684   -0.8510 C   0  0  0  0  0  0  0  0  0  0  0  0
   49.7804   -8.2026    0.3192 C   0  0  0  0  0  0  0  0  0  0  0  0
   49.9388   -9.3913    1.0752 C   0  0  0  0  0  0  0  0  0  0  0  0
   50.7796  -10.3999    0.6063 C   0  0  0  0  0  0  0  0  0  0  0  0
   51.4276  -10.1497   -0.6200 C   0  0  0  0  0  0  0  0  0  0  0  0
   51.2841   -9.0430   -1.3380 C   0  0  0  0  0  0  0  0  0  0  0  0
 18 19  2  0  0  0
 19 17  1  0  0  0
 17  1  1  0  0  0
  1  2  1  0  0  0
  2  3  1  0  0  0
  3  4  2  0  0  0
  3  5  1  0  0  0
  5  6  1  0  0  0
  6 20  1  0  0  0
 20 21  1  0  0  0
 21 22  2  0  0  0
 22 23  1  0  0  0
 23 24  2  0  0  0
 24 25  1  0  0  0
 24 26  1  0  0  0
 26 27  2  0  0  0
  6  7  1  0  0  0
  7  8  2  0  0  0
  7  9  1  0  0  0
  9 29  1  0  0  0
 29 30  1  0  0  0
 30 31  2  0  0  0
 31 32  1  0  0  0
 32 33  2  0  0  0
 33 34  1  0  0  0
 34 35  1  0  0  0
 35 40  1  0  0  0
 40 41  2  0  0  0
 40 42  1  0  0  0
 42 44  1  0  0  0
 44 45  2  0  0  0
 45 46  1  0  0  0
 46 47  2  0  0  0
 47 50  1  0  0  0
 50 51  1  0  0  0
 51 52  1  0  0  0
 52 53  1  0  0  0
 53 56  1  0  0  0
 56 57  1  0  0  0
 57 58  1  0  0  0
 58 59  1  0  0  0
 53 54  1  0  0  0
 54 55  1  0  0  0
 47 48  1  0  0  0
 48 49  2  0  0  0
 35 36  2  0  0  0
 36 37  1  0  0  0
 37 38  1  0  0  0
 37 39  1  0  0  0
  9 10  1  0  0  0
 10 11  1  0  0  0
 11 12  1  0  0  0
 12 13  1  0  0  0
 13 14  2  0  0  0
 13 15  1  0  0  0
 15 60  1  0  0  0
 60 61  1  0  0  0
 61 62  2  0  0  0
 62 63  1  0  0  0
 63 64  2  0  0  0
 64 65  1  0  0  0
 65 66  2  0  0  0
 12  1  1  0  0  0
 66 61  1  0  0  0
 11  5  1  0  0  0
 27 21  1  0  0  0
 39 30  1  0  0  0
 39 34  2  0  0  0
 49 44  1  0  0  0
 55 50  1  0  0  0
 59 56  1  0  0  0
 25 28  1  0  0  0
 42 43  1  0  0  0
 15 16  1  0  0  0
M  END
> <minimizedAffinity>
-6.66129

> <CNNscore>
0.1141828001

> <CNNaffinity>
6.6668701172

> <CNN_VS>
0.7612419128

> <CNNaffinity_variance>
0.3467357159

$$$$
[H]Oc1c([H])c([H])c(C([H])([H])[C@@]2([H])C(=O)N(C([H])([H])c3c([H])c([H])c([H])c4c(C(=O)N([H])c5c([H])nc(N6C([H])([H])C([H])([H])C([H])(N7C([H])([H])C([H])([H])C7([H])[H])C([H])([H])C6([H])[H])c([H])c5[H])c([H])n(C([H])([H])[H])c34)C([H])([H])[C@]3([H])N(C(=O)N([H])C([H])([H])c4c([H])c([H])c([H])c([H])c4[H])N(C([H])([H])C([H])=C([H])[H])C([H])([H])C(=O)N23)c([H])c1[H]


 66 74  0  0  0  0  0  0  0  0999 V2000
   54.3940   -5.7005   -3.6629 N   0  0  0  0  0  0  0  0  0  0  0  0
   53.6277   -4.7304   -2.9015 C   0  0  0  0  0  0  0  0  0  0  0  0
   52.8648   -5.6146   -1.9296 C   0  0  0  0  0  0  0  0  0  0  0  0
   51.6332   -5.4493   -1.8652 O   0  0  0  0  0  0  0  0  0  0  0  0
   53.5650   -6.5485   -1.1661 N   0  0  0  0  0  0  0  0  0  0  0  0
   53.0451   -7.0047    0.0914 C   0  0  0  0  0  0  0  0  0  0  0  0
   53.9286   -6.2887    1.0858 C   0  0  0  0  0  0  0  0  0  0  0  0
   53.4629   -5.7772    2.0897 O   0  0  0  0  0  0  0  0  0  0  0  0
   55.3077   -6.2411    0.8015 N   0  0  0  0  0  0  0  0  0  0  0  0
   55.8732   -6.7847   -0.4574 C   0  0  0  0  0  0  0  0  0  0  0  0
   54.8754   -7.0066   -1.5450 C   0  0  0  0  0  0  0  0  0  0  0  0
   55.2193   -6.5198   -2.8613 N   0  0  0  0  0  0  0  0  0  0  0  0
   56.4604   -6.8737   -3.4758 C   0  0  0  0  0  0  0  0  0  0  0  0
   56.7068   -6.3488   -4.6136 O   0  0  0  0  0  0  0  0  0  0  0  0
   57.4424   -7.7369   -2.9746 N   0  0  0  0  0  0  0  0  0  0  0  0
   57.3266   -8.2071   -2.0766 H   0  0  0  0  0  0  0  0  0  0  0  0
   53.3832   -6.4628   -4.3804 C   0  0  0  0  0  0  0  0  0  0  0  0
   53.0182   -5.1669   -6.4002 C   0  0  0  0  0  0  0  0  0  0  0  0
   53.3809   -6.2747   -5.8114 C   0  0  0  0  0  0  0  0  0  0  0  0
   52.9899   -8.4484    0.3625 C   0  0  0  0  0  0  0  0  0  0  0  0
   51.7393   -9.0499    0.8319 C   0  0  0  0  0  0  0  0  0  0  0  0
   51.1180   -8.5774    1.9894 C   0  0  0  0  0  0  0  0  0  0  0  0
   49.9774   -9.1809    2.4740 C   0  0  0  0  0  0  0  0  0  0  0  0
   49.3925  -10.2693    1.8580 C   0  0  0  0  0  0  0  0  0  0  0  0
   48.2471  -10.8262    2.3946 O   0  0  0  0  0  0  0  0  0  0  0  0
   49.9983  -10.7363    0.7251 C   0  0  0  0  0  0  0  0  0  0  0  0
   51.1527  -10.1361    0.2225 C   0  0  0  0  0  0  0  0  0  0  0  0
   47.8052  -10.4693    3.2347 H   0  0  0  0  0  0  0  0  0  0  0  0
   56.3036   -5.6309    1.6839 C   0  0  0  0  0  0  0  0  0  0  0  0
   57.0577   -6.6878    2.3651 C   0  0  0  0  0  0  0  0  0  0  0  0
   56.4351   -7.6397    3.1295 C   0  0  0  0  0  0  0  0  0  0  0  0
   57.1434   -8.6068    3.8219 C   0  0  0  0  0  0  0  0  0  0  0  0
   58.5242   -8.6311    3.7520 C   0  0  0  0  0  0  0  0  0  0  0  0
   59.1711   -7.6641    2.9721 C   0  0  0  0  0  0  0  0  0  0  0  0
   60.4817   -7.4548    2.7008 C   0  0  0  0  0  0  0  0  0  0  0  0
   60.5430   -6.3827    1.8573 C   0  0  0  0  0  0  0  0  0  0  0  0
   59.3140   -5.9070    1.5900 N   0  0  0  0  0  0  0  0  0  0  0  0
   58.9937   -4.7872    0.7401 C   0  0  0  0  0  0  0  0  0  0  0  0
   58.4467   -6.6987    2.2833 C   0  0  0  0  0  0  0  0  0  0  0  0
   61.6938   -8.1837    3.2102 C   0  0  0  0  0  0  0  0  0  0  0  0
   62.4610   -7.6075    4.0106 O   0  0  0  0  0  0  0  0  0  0  0  0
   61.8677   -9.4977    2.7382 N   0  0  0  0  0  0  0  0  0  0  0  0
   62.8282   -9.6575    3.7167 H   0  0  0  0  0  0  0  0  0  0  0  0
   62.0448  -10.7176    2.3112 C   0  0  0  0  0  0  0  0  0  0  0  0
   63.3045  -11.1189    1.8203 C   0  0  0  0  0  0  0  0  0  0  0  0
   63.5744  -12.3516    1.3541 C   0  0  0  0  0  0  0  0  0  0  0  0
   62.5644  -13.2863    1.3454 C   0  0  0  0  0  0  0  0  0  0  0  0
   61.3282  -12.9778    1.7988 N   0  0  0  0  0  0  0  0  0  0  0  0
   61.0689  -11.7368    2.2716 C   0  0  0  0  0  0  0  0  0  0  0  0
   62.7674  -14.5989    0.8137 N   0  0  0  0  0  0  0  0  0  0  0  0
   61.6504  -15.5098    0.7669 C   0  0  0  0  0  0  0  0  0  0  0  0
   61.5757  -16.3897   -0.4259 C   0  0  0  0  0  0  0  0  0  0  0  0
   62.7790  -16.3979   -1.3011 C   0  0  0  0  0  0  0  0  0  0  0  0
   64.0775  -16.1714   -0.5337 C   0  0  0  0  0  0  0  0  0  0  0  0
   64.0720  -14.9989    0.3663 C   0  0  0  0  0  0  0  0  0  0  0  0
   62.9672  -17.5660   -2.0860 N   0  0  0  0  0  0  0  0  0  0  0  0
   63.8157  -18.5844   -1.5559 C   0  0  0  0  0  0  0  0  0  0  0  0
   64.1321  -18.9784   -2.9847 C   0  0  0  0  0  0  0  0  0  0  0  0
   63.7032  -17.5454   -3.2937 C   0  0  0  0  0  0  0  0  0  0  0  0
   58.6669   -8.0099   -3.7219 C   0  0  0  0  0  0  0  0  0  0  0  0
   59.7104   -8.6189   -2.8175 C   0  0  0  0  0  0  0  0  0  0  0  0
   60.8090   -9.2059   -3.3524 C   0  0  0  0  0  0  0  0  0  0  0  0
   61.7594   -9.8097   -2.4913 C   0  0  0  0  0  0  0  0  0  0  0  0
   61.5503   -9.7918   -1.1128 C   0  0  0  0  0  0  0  0  0  0  0  0
   60.3728   -9.1563   -0.6704 C   0  0  0  0  0  0  0  0  0  0  0  0
   59.4783   -8.5845   -1.4665 C   0  0  0  0  0  0  0  0  0  0  0  0
 18 19  2  0  0  0
 19 17  1  0  0  0
 17  1  1  0  0  0
  1  2  1  0  0  0
  2  3  1  0  0  0
  3  4  2  0  0  0
  3  5  1  0  0  0
  5  6  1  0  0  0
  6 20  1  0  0  0
 20 21  1  0  0  0
 21 22  2  0  0  0
 22 23  1  0  0  0
 23 24  2  0  0  0
 24 25  1  0  0  0
 24 26  1  0  0  0
 26 27  2  0  0  0
  6  7  1  0  0  0
  7  8  2  0  0  0
  7  9  1  0  0  0
  9 29  1  0  0  0
 29 30  1  0  0  0
 30 31  2  0  0  0
 31 32  1  0  0  0
 32 33  2  0  0  0
 33 34  1  0  0  0
 34 35  1  0  0  0
 35 40  1  0  0  0
 40 41  2  0  0  0
 40 42  1  0  0  0
 42 44  1  0  0  0
 44 45  2  0  0  0
 45 46  1  0  0  0
 46 47  2  0  0  0
 47 50  1  0  0  0
 50 51  1  0  0  0
 51 52  1  0  0  0
 52 53  1  0  0  0
 53 56  1  0  0  0
 56 57  1  0  0  0
 57 58  1  0  0  0
 58 59  1  0  0  0
 53 54  1  0  0  0
 54 55  1  0  0  0
 47 48  1  0  0  0
 48 49  2  0  0  0
 35 36  2  0  0  0
 36 37  1  0  0  0
 37 38  1  0  0  0
 37 39  1  0  0  0
  9 10  1  0  0  0
 10 11  1  0  0  0
 11 12  1  0  0  0
 12 13  1  0  0  0
 13 14  2  0  0  0
 13 15  1  0  0  0
 15 60  1  0  0  0
 60 61  1  0  0  0
 61 62  2  0  0  0
 62 63  1  0  0  0
 63 64  2  0  0  0
 64 65  1  0  0  0
 65 66  2  0  0  0
 12  1  1  0  0  0
 66 61  1  0  0  0
 11  5  1  0  0  0
 27 21  1  0  0  0
 39 30  1  0  0  0
 39 34  2  0  0  0
 49 44  1  0  0  0
 55 50  1  0  0  0
 59 56  1  0  0  0
 25 28  1  0  0  0
 42 43  1  0  0  0
 15 16  1  0  0  0
M  END
> <minimizedAffinity>
-5.56585

> <CNNscore>
0.0796434283

> <CNNaffinity>
6.7484383583

> <CNN_VS>
0.5374687910

> <CNNaffinity_variance>
0.2495122850

$$$$
[H]Oc1c([H])c([H])c(C([H])([H])[C@@]2([H])C(=O)N(C([H])([H])c3c([H])c([H])c([H])c4c(C(=O)N([H])c5c([H])nc(N6C([H])([H])C([H])([H])C([H])(N7C([H])([H])C([H])([H])C7([H])[H])C([H])([H])C6([H])[H])c([H])c5[H])c([H])n(C([H])([H])[H])c34)C([H])([H])[C@]3([H])N(C(=O)N([H])C([H])([H])c4c([H])c([H])c([H])c([H])c4[H])N(C([H])([H])C([H])=C([H])[H])C([H])([H])C(=O)N23)c([H])c1[H]


 66 74  0  0  0  0  0  0  0  0999 V2000
   57.8136   -3.9086  -15.5614 N   0  0  0  0  0  0  0  0  0  0  0  0
   57.1556   -4.4818  -16.7218 C   0  0  0  0  0  0  0  0  0  0  0  0
   56.8023   -3.2470  -17.5336 C   0  0  0  0  0  0  0  0  0  0  0  0
   55.6214   -3.1396  -17.9108 O   0  0  0  0  0  0  0  0  0  0  0  0
   57.7975   -2.3119  -17.8176 N   0  0  0  0  0  0  0  0  0  0  0  0
   57.6953   -1.4595  -18.9677 C   0  0  0  0  0  0  0  0  0  0  0  0
   58.7084   -2.0654  -19.9105 C   0  0  0  0  0  0  0  0  0  0  0  0
   58.4625   -2.2038  -21.0965 O   0  0  0  0  0  0  0  0  0  0  0  0
   59.9435   -2.4592  -19.3588 N   0  0  0  0  0  0  0  0  0  0  0  0
   60.2211   -2.3746  -17.9042 C   0  0  0  0  0  0  0  0  0  0  0  0
   59.0088   -2.2369  -17.0446 C   0  0  0  0  0  0  0  0  0  0  0  0
   58.9231   -3.0977  -15.8871 N   0  0  0  0  0  0  0  0  0  0  0  0
   59.9919   -3.1665  -14.9405 C   0  0  0  0  0  0  0  0  0  0  0  0
   59.8555   -3.9989  -13.9817 O   0  0  0  0  0  0  0  0  0  0  0  0
   61.1771   -2.4209  -14.9396 N   0  0  0  0  0  0  0  0  0  0  0  0
   61.3673   -1.7269  -15.6628 H   0  0  0  0  0  0  0  0  0  0  0  0
   56.7587   -3.1638  -14.8906 C   0  0  0  0  0  0  0  0  0  0  0  0
   56.5364   -4.7631  -13.0780 C   0  0  0  0  0  0  0  0  0  0  0  0
   56.5354   -3.5317  -13.5129 C   0  0  0  0  0  0  0  0  0  0  0  0
   57.9058   -0.0134  -18.8086 C   0  0  0  0  0  0  0  0  0  0  0  0
   56.9657    0.9273  -19.4231 C   0  0  0  0  0  0  0  0  0  0  0  0
   57.3651    1.7278  -20.4949 C   0  0  0  0  0  0  0  0  0  0  0  0
   56.5074    2.6619  -21.0353 C   0  0  0  0  0  0  0  0  0  0  0  0
   55.2273    2.8606  -20.5578 C   0  0  0  0  0  0  0  0  0  0  0  0
   54.4168    3.8125  -21.1468 O   0  0  0  0  0  0  0  0  0  0  0  0
   54.8325    2.0800  -19.5074 C   0  0  0  0  0  0  0  0  0  0  0  0
   55.6889    1.1305  -18.9501 C   0  0  0  0  0  0  0  0  0  0  0  0
   54.7202    4.3843  -21.9275 H   0  0  0  0  0  0  0  0  0  0  0  0
   61.0482   -3.0157  -20.1419 C   0  0  0  0  0  0  0  0  0  0  0  0
   61.4156   -4.3257  -19.5954 C   0  0  0  0  0  0  0  0  0  0  0  0
   60.5263   -5.3678  -19.5609 C   0  0  0  0  0  0  0  0  0  0  0  0
   60.8463   -6.5902  -18.9955 C   0  0  0  0  0  0  0  0  0  0  0  0
   62.0988   -6.7867  -18.4433 C   0  0  0  0  0  0  0  0  0  0  0  0
   63.0164   -5.7290  -18.4747 C   0  0  0  0  0  0  0  0  0  0  0  0
   64.2967   -5.6340  -18.0423 C   0  0  0  0  0  0  0  0  0  0  0  0
   64.7251   -4.3752  -18.3531 C   0  0  0  0  0  0  0  0  0  0  0  0
   63.7558   -3.6720  -18.9648 N   0  0  0  0  0  0  0  0  0  0  0  0
   63.8492   -2.3125  -19.4358 C   0  0  0  0  0  0  0  0  0  0  0  0
   62.6807   -4.5070  -19.0450 C   0  0  0  0  0  0  0  0  0  0  0  0
   65.1426   -6.6473  -17.3228 C   0  0  0  0  0  0  0  0  0  0  0  0
   65.5383   -7.6599  -17.9387 O   0  0  0  0  0  0  0  0  0  0  0  0
   65.4368   -6.3619  -15.9768 N   0  0  0  0  0  0  0  0  0  0  0  0
   66.3758   -7.3723  -16.0309 H   0  0  0  0  0  0  0  0  0  0  0  0
   65.7200   -6.1135  -14.7279 C   0  0  0  0  0  0  0  0  0  0  0  0
   65.8060   -4.7810  -14.2740 C   0  0  0  0  0  0  0  0  0  0  0  0
   66.0995   -4.4331  -13.0080 C   0  0  0  0  0  0  0  0  0  0  0  0
   66.3383   -5.4310  -12.0910 C   0  0  0  0  0  0  0  0  0  0  0  0
   66.2758   -6.7336  -12.4495 N   0  0  0  0  0  0  0  0  0  0  0  0
   65.9734   -7.0730  -13.7239 C   0  0  0  0  0  0  0  0  0  0  0  0
   66.7086   -5.1314  -10.7419 N   0  0  0  0  0  0  0  0  0  0  0  0
   67.8603   -4.2960  -10.5069 C   0  0  0  0  0  0  0  0  0  0  0  0
   67.7543   -3.3424   -9.3746 C   0  0  0  0  0  0  0  0  0  0  0  0
   66.5822   -3.5300   -8.4773 C   0  0  0  0  0  0  0  0  0  0  0  0
   66.1457   -4.9869   -8.3614 C   0  0  0  0  0  0  0  0  0  0  0  0
   65.9560   -5.6841   -9.6508 C   0  0  0  0  0  0  0  0  0  0  0  0
   66.7309   -3.0419   -7.1523 N   0  0  0  0  0  0  0  0  0  0  0  0
   67.9292   -2.3294   -6.8449 C   0  0  0  0  0  0  0  0  0  0  0  0
   67.7705   -2.8028   -5.4140 C   0  0  0  0  0  0  0  0  0  0  0  0
   66.9343   -3.9093   -6.0538 C   0  0  0  0  0  0  0  0  0  0  0  0
   62.1841   -2.5964  -13.8967 C   0  0  0  0  0  0  0  0  0  0  0  0
   63.4788   -1.9333  -14.2987 C   0  0  0  0  0  0  0  0  0  0  0  0
   64.1692   -1.1953  -13.3952 C   0  0  0  0  0  0  0  0  0  0  0  0
   65.3620   -0.5449  -13.7998 C   0  0  0  0  0  0  0  0  0  0  0  0
   65.8049   -0.6728  -15.1157 C   0  0  0  0  0  0  0  0  0  0  0  0
   65.0058   -1.4619  -15.9672 C   0  0  0  0  0  0  0  0  0  0  0  0
   63.8899   -2.0784  -15.5987 C   0  0  0  0  0  0  0  0  0  0  0  0
 18 19  2  0  0  0
 19 17  1  0  0  0
 17  1  1  0  0  0
  1  2  1  0  0  0
  2  3  1  0  0  0
  3  4  2  0  0  0
  3  5  1  0  0  0
  5  6  1  0  0  0
  6 20  1  0  0  0
 20 21  1  0  0  0
 21 22  2  0  0  0
 22 23  1  0  0  0
 23 24  2  0  0  0
 24 25  1  0  0  0
 24 26  1  0  0  0
 26 27  2  0  0  0
  6  7  1  0  0  0
  7  8  2  0  0  0
  7  9  1  0  0  0
  9 29  1  0  0  0
 29 30  1  0  0  0
 30 31  2  0  0  0
 31 32  1  0  0  0
 32 33  2  0  0  0
 33 34  1  0  0  0
 34 35  1  0  0  0
 35 40  1  0  0  0
 40 41  2  0  0  0
 40 42  1  0  0  0
 42 44  1  0  0  0
 44 45  2  0  0  0
 45 46  1  0  0  0
 46 47  2  0  0  0
 47 50  1  0  0  0
 50 51  1  0  0  0
 51 52  1  0  0  0
 52 53  1  0  0  0
 53 56  1  0  0  0
 56 57  1  0  0  0
 57 58  1  0  0  0
 58 59  1  0  0  0
 53 54  1  0  0  0
 54 55  1  0  0  0
 47 48  1  0  0  0
 48 49  2  0  0  0
 35 36  2  0  0  0
 36 37  1  0  0  0
 37 38  1  0  0  0
 37 39  1  0  0  0
  9 10  1  0  0  0
 10 11  1  0  0  0
 11 12  1  0  0  0
 12 13  1  0  0  0
 13 14  2  0  0  0
 13 15  1  0  0  0
 15 60  1  0  0  0
 60 61  1  0  0  0
 61 62  2  0  0  0
 62 63  1  0  0  0
 63 64  2  0  0  0
 64 65  1  0  0  0
 65 66  2  0  0  0
 12  1  1  0  0  0
 66 61  1  0  0  0
 11  5  1  0  0  0
 27 21  1  0  0  0
 39 30  1  0  0  0
 39 34  2  0  0  0
 49 44  1  0  0  0
 55 50  1  0  0  0
 59 56  1  0  0  0
 25 28  1  0  0  0
 42 43  1  0  0  0
 15 16  1  0  0  0
M  END
> <minimizedAffinity>
-5.22712

> <CNNscore>
0.0771342516

> <CNNaffinity>
6.2922964096

> <CNN_VS>
0.4853515625

> <CNNaffinity_variance>
0.3224807084

$$$$
[H]Oc1c([H])c([H])c(C([H])([H])[C@@]2([H])C(=O)N(C([H])([H])c3c([H])c([H])c([H])c4c(C(=O)N([H])c5c([H])nc(N6C([H])([H])C([H])([H])C([H])(N7C([H])([H])C([H])([H])C7([H])[H])C([H])([H])C6([H])[H])c([H])c5[H])c([H])n(C([H])([H])[H])c34)C([H])([H])[C@]3([H])N(C(=O)N([H])C([H])([H])c4c([H])c([H])c([H])c([H])c4[H])N(C([H])([H])C([H])=C([H])[H])C([H])([H])C(=O)N23)c([H])c1[H]


 66 74  0  0  0  0  0  0  0  0999 V2000
   64.0430   -7.5818    2.6946 N   0  0  0  0  0  0  0  0  0  0  0  0
   63.0107   -8.3053    3.4149 C   0  0  0  0  0  0  0  0  0  0  0  0
   61.8052   -7.3955    3.2491 C   0  0  0  0  0  0  0  0  0  0  0  0
   61.1899   -7.0811    4.2840 O   0  0  0  0  0  0  0  0  0  0  0  0
   61.4472   -6.9666    1.9710 N   0  0  0  0  0  0  0  0  0  0  0  0
   60.0938   -6.5909    1.6765 C   0  0  0  0  0  0  0  0  0  0  0  0
   59.6009   -7.7662    0.8653 C   0  0  0  0  0  0  0  0  0  0  0  0
   58.4913   -8.2374    1.0472 O   0  0  0  0  0  0  0  0  0  0  0  0
   60.4775   -8.2882   -0.1064 N   0  0  0  0  0  0  0  0  0  0  0  0
   61.8599   -7.7786   -0.2775 C   0  0  0  0  0  0  0  0  0  0  0  0
   62.3806   -6.9878    0.8761 C   0  0  0  0  0  0  0  0  0  0  0  0
   63.7068   -7.3120    1.3496 N   0  0  0  0  0  0  0  0  0  0  0  0
   64.8183   -7.3560    0.4520 C   0  0  0  0  0  0  0  0  0  0  0  0
   65.9409   -7.7106    0.9469 O   0  0  0  0  0  0  0  0  0  0  0  0
   64.8212   -7.0504   -0.9145 N   0  0  0  0  0  0  0  0  0  0  0  0
   63.9711   -6.7504   -1.3924 H   0  0  0  0  0  0  0  0  0  0  0  0
   64.2316   -6.3679    3.4745 C   0  0  0  0  0  0  0  0  0  0  0  0
   66.4744   -5.4504    3.6177 C   0  0  0  0  0  0  0  0  0  0  0  0
   65.5343   -6.2299    4.0803 C   0  0  0  0  0  0  0  0  0  0  0  0
   59.8372   -5.3172    0.9891 C   0  0  0  0  0  0  0  0  0  0  0  0
   59.8933   -4.0628    1.7437 C   0  0  0  0  0  0  0  0  0  0  0  0
   61.1161   -3.4296    1.9734 C   0  0  0  0  0  0  0  0  0  0  0  0
   61.1848   -2.2849    2.7383 C   0  0  0  0  0  0  0  0  0  0  0  0
   60.0710   -1.7073    3.3144 C   0  0  0  0  0  0  0  0  0  0  0  0
   60.2085   -0.5573    4.0685 O   0  0  0  0  0  0  0  0  0  0  0  0
   58.8717   -2.3247    3.0934 C   0  0  0  0  0  0  0  0  0  0  0  0
   58.7862   -3.4833    2.3215 C   0  0  0  0  0  0  0  0  0  0  0  0
   61.1038   -0.1068    4.2236 H   0  0  0  0  0  0  0  0  0  0  0  0
   60.1361   -9.3903   -1.0075 C   0  0  0  0  0  0  0  0  0  0  0  0
   60.5404   -9.0408   -2.3728 C   0  0  0  0  0  0  0  0  0  0  0  0
   59.8853   -8.0776   -3.0946 C   0  0  0  0  0  0  0  0  0  0  0  0
   60.2238   -7.7811   -4.4038 C   0  0  0  0  0  0  0  0  0  0  0  0
   61.2541   -8.4667   -5.0208 C   0  0  0  0  0  0  0  0  0  0  0  0
   61.9319   -9.4521   -4.2918 C   0  0  0  0  0  0  0  0  0  0  0  0
   62.9738  -10.2551   -4.6152 C   0  0  0  0  0  0  0  0  0  0  0  0
   63.2471  -11.0100   -3.5106 C   0  0  0  0  0  0  0  0  0  0  0  0
   62.4096  -10.7114   -2.5018 N   0  0  0  0  0  0  0  0  0  0  0  0
   62.4028  -11.3056   -1.1882 C   0  0  0  0  0  0  0  0  0  0  0  0
   61.5802   -9.7396   -2.9785 C   0  0  0  0  0  0  0  0  0  0  0  0
   63.7175  -10.3826   -5.9155 C   0  0  0  0  0  0  0  0  0  0  0  0
   64.7658   -9.7244   -6.0863 O   0  0  0  0  0  0  0  0  0  0  0  0
   63.1622  -11.2651   -6.8603 N   0  0  0  0  0  0  0  0  0  0  0  0
   64.3478  -11.1652   -7.5604 H   0  0  0  0  0  0  0  0  0  0  0  0
   62.6620  -12.0794   -7.7483 C   0  0  0  0  0  0  0  0  0  0  0  0
   62.4385  -13.4326   -7.4201 C   0  0  0  0  0  0  0  0  0  0  0  0
   61.9346  -14.3422   -8.2735 C   0  0  0  0  0  0  0  0  0  0  0  0
   61.6191  -13.9402   -9.5513 C   0  0  0  0  0  0  0  0  0  0  0  0
   61.8057  -12.6591   -9.9426 N   0  0  0  0  0  0  0  0  0  0  0  0
   62.3072  -11.7505   -9.0745 C   0  0  0  0  0  0  0  0  0  0  0  0
   61.1305  -14.8669  -10.5257 N   0  0  0  0  0  0  0  0  0  0  0  0
   60.9905  -16.2538  -10.1563 C   0  0  0  0  0  0  0  0  0  0  0  0
   59.8102  -16.9610  -10.7126 C   0  0  0  0  0  0  0  0  0  0  0  0
   59.0556  -16.2315  -11.7673 C   0  0  0  0  0  0  0  0  0  0  0  0
   59.9413  -15.3270  -12.6182 C   0  0  0  0  0  0  0  0  0  0  0  0
   60.8178  -14.4157  -11.8527 C   0  0  0  0  0  0  0  0  0  0  0  0
   58.3113  -17.0382  -12.6679 N   0  0  0  0  0  0  0  0  0  0  0  0
   57.4279  -16.3724  -13.5704 C   0  0  0  0  0  0  0  0  0  0  0  0
   56.5775  -17.6268  -13.5664 C   0  0  0  0  0  0  0  0  0  0  0  0
   57.2659  -17.8827  -12.2271 C   0  0  0  0  0  0  0  0  0  0  0  0
   66.0431   -7.1360   -1.7095 C   0  0  0  0  0  0  0  0  0  0  0  0
   65.7804   -6.6912   -3.1274 C   0  0  0  0  0  0  0  0  0  0  0  0
   64.5492   -6.8555   -3.6703 C   0  0  0  0  0  0  0  0  0  0  0  0
   64.3298   -6.4704   -5.0167 C   0  0  0  0  0  0  0  0  0  0  0  0
   65.3794   -5.9315   -5.7597 C   0  0  0  0  0  0  0  0  0  0  0  0
   66.6152   -5.8098   -5.0932 C   0  0  0  0  0  0  0  0  0  0  0  0
   66.8313   -6.1631   -3.8325 C   0  0  0  0  0  0  0  0  0  0  0  0
 18 19  2  0  0  0
 19 17  1  0  0  0
 17  1  1  0  0  0
  1  2  1  0  0  0
  2  3  1  0  0  0
  3  4  2  0  0  0
  3  5  1  0  0  0
  5  6  1  0  0  0
  6 20  1  0  0  0
 20 21  1  0  0  0
 21 22  2  0  0  0
 22 23  1  0  0  0
 23 24  2  0  0  0
 24 25  1  0  0  0
 24 26  1  0  0  0
 26 27  2  0  0  0
  6  7  1  0  0  0
  7  8  2  0  0  0
  7  9  1  0  0  0
  9 29  1  0  0  0
 29 30  1  0  0  0
 30 31  2  0  0  0
 31 32  1  0  0  0
 32 33  2  0  0  0
 33 34  1  0  0  0
 34 35  1  0  0  0
 35 40  1  0  0  0
 40 41  2  0  0  0
 40 42  1  0  0  0
 42 44  1  0  0  0
 44 45  2  0  0  0
 45 46  1  0  0  0
 46 47  2  0  0  0
 47 50  1  0  0  0
 50 51  1  0  0  0
 51 52  1  0  0  0
 52 53  1  0  0  0
 53 56  1  0  0  0
 56 57  1  0  0  0
 57 58  1  0  0  0
 58 59  1  0  0  0
 53 54  1  0  0  0
 54 55  1  0  0  0
 47 48  1  0  0  0
 48 49  2  0  0  0
 35 36  2  0  0  0
 36 37  1  0  0  0
 37 38  1  0  0  0
 37 39  1  0  0  0
  9 10  1  0  0  0
 10 11  1  0  0  0
 11 12  1  0  0  0
 12 13  1  0  0  0
 13 14  2  0  0  0
 13 15  1  0  0  0
 15 60  1  0  0  0
 60 61  1  0  0  0
 61 62  2  0  0  0
 62 63  1  0  0  0
 63 64  2  0  0  0
 64 65  1  0  0  0
 65 66  2  0  0  0
 12  1  1  0  0  0
 66 61  1  0  0  0
 11  5  1  0  0  0
 27 21  1  0  0  0
 39 30  1  0  0  0
 39 34  2  0  0  0
 49 44  1  0  0  0
 55 50  1  0  0  0
 59 56  1  0  0  0
 25 28  1  0  0  0
 42 43  1  0  0  0
 15 16  1  0  0  0
M  END
> <minimizedAffinity>
-5.92517

> <CNNscore>
0.0748978779

> <CNNaffinity>
6.1995511055

> <CNN_VS>
0.4643332362

> <CNNaffinity_variance>
0.1674945801

$$$$
[H]Oc1c([H])c([H])c(C([H])([H])[C@@]2([H])C(=O)N(C([H])([H])c3c([H])c([H])c([H])c4c(C(=O)N([H])c5c([H])nc(N6C([H])([H])C([H])([H])C([H])(N7C([H])([H])C([H])([H])C7([H])[H])C([H])([H])C6([H])[H])c([H])c5[H])c([H])n(C([H])([H])[H])c34)C([H])([H])[C@]3([H])N(C(=O)N([H])C([H])([H])c4c([H])c([H])c([H])c([H])c4[H])N(C([H])([H])C([H])=C([H])[H])C([H])([H])C(=O)N23)c([H])c1[H]


 66 74  0  0  0  0  0  0  0  0999 V2000
   61.7020  -10.4042   -5.8066 N   0  0  0  0  0  0  0  0  0  0  0  0
   60.4142  -10.3902   -5.1362 C   0  0  0  0  0  0  0  0  0  0  0  0
   60.6421  -11.3523   -3.9824 C   0  0  0  0  0  0  0  0  0  0  0  0
   59.8112  -12.2674   -3.8394 O   0  0  0  0  0  0  0  0  0  0  0  0
   61.7461  -11.1673   -3.1503 N   0  0  0  0  0  0  0  0  0  0  0  0
   61.7350  -11.6520   -1.7996 C   0  0  0  0  0  0  0  0  0  0  0  0
   61.5628  -10.3812   -1.0012 C   0  0  0  0  0  0  0  0  0  0  0  0
   60.8032  -10.3325   -0.0489 O   0  0  0  0  0  0  0  0  0  0  0  0
   62.3176   -9.2621   -1.4050 N   0  0  0  0  0  0  0  0  0  0  0  0
   63.1790   -9.2852   -2.6122 C   0  0  0  0  0  0  0  0  0  0  0  0
   62.8868  -10.3950   -3.5663 C   0  0  0  0  0  0  0  0  0  0  0  0
   62.7786  -10.0478   -4.9647 N   0  0  0  0  0  0  0  0  0  0  0  0
   63.8126   -9.3120   -5.6224 C   0  0  0  0  0  0  0  0  0  0  0  0
   63.6047   -8.9969   -6.8424 O   0  0  0  0  0  0  0  0  0  0  0  0
   65.0362   -8.8964   -5.0831 N   0  0  0  0  0  0  0  0  0  0  0  0
   65.2904   -9.1106   -4.1186 H   0  0  0  0  0  0  0  0  0  0  0  0
   61.8199  -11.7627   -6.3146 C   0  0  0  0  0  0  0  0  0  0  0  0
   61.5504  -12.9829   -8.3956 C   0  0  0  0  0  0  0  0  0  0  0  0
   61.8153  -11.8772   -7.7533 C   0  0  0  0  0  0  0  0  0  0  0  0
   62.8743  -12.4430   -1.3129 C   0  0  0  0  0  0  0  0  0  0  0  0
   62.8049  -13.9061   -1.3406 C   0  0  0  0  0  0  0  0  0  0  0  0
   63.9355  -14.6734   -1.0540 C   0  0  0  0  0  0  0  0  0  0  0  0
   63.8955  -16.0484   -1.1426 C   0  0  0  0  0  0  0  0  0  0  0  0
   62.7583  -16.7372   -1.5147 C   0  0  0  0  0  0  0  0  0  0  0  0
   62.7846  -18.1173   -1.5813 O   0  0  0  0  0  0  0  0  0  0  0  0
   61.6492  -15.9898   -1.7976 C   0  0  0  0  0  0  0  0  0  0  0  0
   61.6742  -14.5979   -1.7124 C   0  0  0  0  0  0  0  0  0  0  0  0
   63.6132  -18.6613   -1.3667 H   0  0  0  0  0  0  0  0  0  0  0  0
   62.3041   -7.9734   -0.7107 C   0  0  0  0  0  0  0  0  0  0  0  0
   60.9734   -7.3709   -0.8365 C   0  0  0  0  0  0  0  0  0  0  0  0
   60.3020   -7.3483   -2.0309 C   0  0  0  0  0  0  0  0  0  0  0  0
   59.0706   -6.7316   -2.1717 C   0  0  0  0  0  0  0  0  0  0  0  0
   58.4814   -6.1140   -1.0837 C   0  0  0  0  0  0  0  0  0  0  0  0
   59.1579   -6.1325    0.1426 C   0  0  0  0  0  0  0  0  0  0  0  0
   58.8274   -5.6418    1.3613 C   0  0  0  0  0  0  0  0  0  0  0  0
   59.8478   -5.9690    2.2076 C   0  0  0  0  0  0  0  0  0  0  0  0
   60.8126   -6.6477    1.5620 N   0  0  0  0  0  0  0  0  0  0  0  0
   62.0352   -7.1541    2.1345 C   0  0  0  0  0  0  0  0  0  0  0  0
   60.3941   -6.7547    0.2686 C   0  0  0  0  0  0  0  0  0  0  0  0
   57.6188   -4.8522    1.7804 C   0  0  0  0  0  0  0  0  0  0  0  0
   57.7694   -3.6909    2.2164 O   0  0  0  0  0  0  0  0  0  0  0  0
   56.3779   -5.4995    1.6360 N   0  0  0  0  0  0  0  0  0  0  0  0
   55.7816   -4.2732    1.8513 H   0  0  0  0  0  0  0  0  0  0  0  0
   55.2186   -6.0838    1.5087 C   0  0  0  0  0  0  0  0  0  0  0  0
   54.5941   -6.6675    2.6304 C   0  0  0  0  0  0  0  0  0  0  0  0
   53.4052   -7.2957    2.5897 C   0  0  0  0  0  0  0  0  0  0  0  0
   52.7508   -7.3859    1.3824 C   0  0  0  0  0  0  0  0  0  0  0  0
   53.2854   -6.8520    0.2607 N   0  0  0  0  0  0  0  0  0  0  0  0
   54.4788   -6.2165    0.3137 C   0  0  0  0  0  0  0  0  0  0  0  0
   51.5099   -8.0867    1.2570 N   0  0  0  0  0  0  0  0  0  0  0  0
   51.0137   -8.3902   -0.0626 C   0  0  0  0  0  0  0  0  0  0  0  0
   50.3423   -9.7043   -0.2208 C   0  0  0  0  0  0  0  0  0  0  0  0
   50.0486  -10.4377    1.0401 C   0  0  0  0  0  0  0  0  0  0  0  0
   49.7624   -9.5111    2.2174 C   0  0  0  0  0  0  0  0  0  0  0  0
   50.7674   -8.4487    2.4318 C   0  0  0  0  0  0  0  0  0  0  0  0
   48.9767  -11.3669    0.9821 N   0  0  0  0  0  0  0  0  0  0  0  0
   47.8153  -10.9853    0.2448 C   0  0  0  0  0  0  0  0  0  0  0  0
   47.0118  -11.8822    1.1650 C   0  0  0  0  0  0  0  0  0  0  0  0
   48.1882  -11.6714    2.1161 C   0  0  0  0  0  0  0  0  0  0  0  0
   66.0043   -8.1504   -5.8823 C   0  0  0  0  0  0  0  0  0  0  0  0
   65.8880   -6.6717   -5.6040 C   0  0  0  0  0  0  0  0  0  0  0  0
   65.0730   -5.9024   -6.3667 C   0  0  0  0  0  0  0  0  0  0  0  0
   65.0063   -4.5083   -6.1190 C   0  0  0  0  0  0  0  0  0  0  0  0
   65.7775   -3.9513   -5.0995 C   0  0  0  0  0  0  0  0  0  0  0  0
   66.5893   -4.8461   -4.3739 C   0  0  0  0  0  0  0  0  0  0  0  0
   66.6569   -6.1530   -4.5941 C   0  0  0  0  0  0  0  0  0  0  0  0
 18 19  2  0  0  0
 19 17  1  0  0  0
 17  1  1  0  0  0
  1  2  1  0  0  0
  2  3  1  0  0  0
  3  4  2  0  0  0
  3  5  1  0  0  0
  5  6  1  0  0  0
  6 20  1  0  0  0
 20 21  1  0  0  0
 21 22  2  0  0  0
 22 23  1  0  0  0
 23 24  2  0  0  0
 24 25  1  0  0  0
 24 26  1  0  0  0
 26 27  2  0  0  0
  6  7  1  0  0  0
  7  8  2  0  0  0
  7  9  1  0  0  0
  9 29  1  0  0  0
 29 30  1  0  0  0
 30 31  2  0  0  0
 31 32  1  0  0  0
 32 33  2  0  0  0
 33 34  1  0  0  0
 34 35  1  0  0  0
 35 40  1  0  0  0
 40 41  2  0  0  0
 40 42  1  0  0  0
 42 44  1  0  0  0
 44 45  2  0  0  0
 45 46  1  0  0  0
 46 47  2  0  0  0
 47 50  1  0  0  0
 50 51  1  0  0  0
 51 52  1  0  0  0
 52 53  1  0  0  0
 53 56  1  0  0  0
 56 57  1  0  0  0
 57 58  1  0  0  0
 58 59  1  0  0  0
 53 54  1  0  0  0
 54 55  1  0  0  0
 47 48  1  0  0  0
 48 49  2  0  0  0
 35 36  2  0  0  0
 36 37  1  0  0  0
 37 38  1  0  0  0
 37 39  1  0  0  0
  9 10  1  0  0  0
 10 11  1  0  0  0
 11 12  1  0  0  0
 12 13  1  0  0  0
 13 14  2  0  0  0
 13 15  1  0  0  0
 15 60  1  0  0  0
 60 61  1  0  0  0
 61 62  2  0  0  0
 62 63  1  0  0  0
 63 64  2  0  0  0
 64 65  1  0  0  0
 65 66  2  0  0  0
 12  1  1  0  0  0
 66 61  1  0  0  0
 11  5  1  0  0  0
 27 21  1  0  0  0
 39 30  1  0  0  0
 39 34  2  0  0  0
 49 44  1  0  0  0
 55 50  1  0  0  0
 59 56  1  0  0  0
 25 28  1  0  0  0
 42 43  1  0  0  0
 15 16  1  0  0  0
M  END
> <minimizedAffinity>
-6.83962

> <CNNscore>
0.0725951716

> <CNNaffinity>
6.7042846680

> <CNN_VS>
0.4866986871

> <CNNaffinity_variance>
0.1102499589

$$$$
[H]Oc1c([H])c([H])c(C([H])([H])[C@@]2([H])C(=O)N(C([H])([H])c3c([H])c([H])c([H])c4c(C(=O)N([H])c5c([H])nc(N6C([H])([H])C([H])([H])C([H])(N7C([H])([H])C([H])([H])C7([H])[H])C([H])([H])C6([H])[H])c([H])c5[H])c([H])n(C([H])([H])[H])c34)C([H])([H])[C@]3([H])N(C(=O)N([H])C([H])([H])c4c([H])c([H])c([H])c([H])c4[H])N(C([H])([H])C([H])=C([H])[H])C([H])([H])C(=O)N23)c([H])c1[H]


 66 74  0  0  0  0  0  0  0  0999 V2000
   61.7185  -10.4690   -5.8542 N   0  0  0  0  0  0  0  0  0  0  0  0
   60.4258  -10.4389   -5.1940 C   0  0  0  0  0  0  0  0  0  0  0  0
   60.6418  -11.3805   -4.0212 C   0  0  0  0  0  0  0  0  0  0  0  0
   59.8069  -12.2904   -3.8680 O   0  0  0  0  0  0  0  0  0  0  0  0
   61.7401  -11.1839   -3.1842 N   0  0  0  0  0  0  0  0  0  0  0  0
   61.7172  -11.6439   -1.8250 C   0  0  0  0  0  0  0  0  0  0  0  0
   61.5429  -10.3582   -1.0512 C   0  0  0  0  0  0  0  0  0  0  0  0
   60.7763  -10.2899   -0.1058 O   0  0  0  0  0  0  0  0  0  0  0  0
   62.3043   -9.2490   -1.4694 N   0  0  0  0  0  0  0  0  0  0  0  0
   63.1749   -9.2966   -2.6694 C   0  0  0  0  0  0  0  0  0  0  0  0
   62.8863  -10.4227   -3.6054 C   0  0  0  0  0  0  0  0  0  0  0  0
   62.7898  -10.1007   -5.0107 N   0  0  0  0  0  0  0  0  0  0  0  0
   63.8311   -9.3800   -5.6737 C   0  0  0  0  0  0  0  0  0  0  0  0
   63.6335   -9.0866   -6.9008 O   0  0  0  0  0  0  0  0  0  0  0  0
   65.0519   -8.9585   -5.1327 N   0  0  0  0  0  0  0  0  0  0  0  0
   65.2982   -9.1559   -4.1625 H   0  0  0  0  0  0  0  0  0  0  0  0
   61.8360  -11.8369   -6.3365 C   0  0  0  0  0  0  0  0  0  0  0  0
   61.4128  -13.0838   -8.3757 C   0  0  0  0  0  0  0  0  0  0  0  0
   61.1076  -12.1190   -7.5501 C   0  0  0  0  0  0  0  0  0  0  0  0
   62.8502  -12.4294   -1.3153 C   0  0  0  0  0  0  0  0  0  0  0  0
   63.5608  -11.9812   -0.1151 C   0  0  0  0  0  0  0  0  0  0  0  0
   64.7859  -11.3207   -0.2238 C   0  0  0  0  0  0  0  0  0  0  0  0
   65.4921  -10.9549    0.9021 C   0  0  0  0  0  0  0  0  0  0  0  0
   65.0411  -11.2160    2.1806 C   0  0  0  0  0  0  0  0  0  0  0  0
   65.7970  -10.8198    3.2677 O   0  0  0  0  0  0  0  0  0  0  0  0
   63.8426  -11.8639    2.2917 C   0  0  0  0  0  0  0  0  0  0  0  0
   63.1165  -12.2402    1.1619 C   0  0  0  0  0  0  0  0  0  0  0  0
   66.6840  -10.3375    3.1726 H   0  0  0  0  0  0  0  0  0  0  0  0
   62.2897   -7.9478   -0.7988 C   0  0  0  0  0  0  0  0  0  0  0  0
   60.9472   -7.3673   -0.9000 C   0  0  0  0  0  0  0  0  0  0  0  0
   60.2508   -7.3623   -2.0803 C   0  0  0  0  0  0  0  0  0  0  0  0
   59.0070   -6.7662   -2.1987 C   0  0  0  0  0  0  0  0  0  0  0  0
   58.4308   -6.1517   -1.1021 C   0  0  0  0  0  0  0  0  0  0  0  0
   59.1328   -6.1523    0.1099 C   0  0  0  0  0  0  0  0  0  0  0  0
   58.8199   -5.6598    1.3325 C   0  0  0  0  0  0  0  0  0  0  0  0
   59.8628   -5.9658    2.1591 C   0  0  0  0  0  0  0  0  0  0  0  0
   60.8247   -6.6328    1.4973 N   0  0  0  0  0  0  0  0  0  0  0  0
   62.0669   -7.1163    2.0469 C   0  0  0  0  0  0  0  0  0  0  0  0
   60.3812   -6.7540    0.2135 C   0  0  0  0  0  0  0  0  0  0  0  0
   57.6078   -4.8871    1.7725 C   0  0  0  0  0  0  0  0  0  0  0  0
   57.7534   -3.7381    2.2413 O   0  0  0  0  0  0  0  0  0  0  0  0
   56.3696   -5.5349    1.6083 N   0  0  0  0  0  0  0  0  0  0  0  0
   55.7682   -4.3175    1.8576 H   0  0  0  0  0  0  0  0  0  0  0  0
   55.2127   -6.1199    1.4632 C   0  0  0  0  0  0  0  0  0  0  0  0
   54.5219   -6.6100    2.5908 C   0  0  0  0  0  0  0  0  0  0  0  0
   53.3303   -7.2318    2.5336 C   0  0  0  0  0  0  0  0  0  0  0  0
   52.7416   -7.4119    1.3028 C   0  0  0  0  0  0  0  0  0  0  0  0
   53.3421   -6.9708    0.1741 N   0  0  0  0  0  0  0  0  0  0  0  0
   54.5376   -6.3408    0.2432 C   0  0  0  0  0  0  0  0  0  0  0  0
   51.5019   -8.1124    1.1641 N   0  0  0  0  0  0  0  0  0  0  0  0
   51.0864   -8.5356   -0.1503 C   0  0  0  0  0  0  0  0  0  0  0  0
   50.4088   -9.8538   -0.2275 C   0  0  0  0  0  0  0  0  0  0  0  0
   50.0261  -10.4626    1.0752 C   0  0  0  0  0  0  0  0  0  0  0  0
   49.6782   -9.4268    2.1394 C   0  0  0  0  0  0  0  0  0  0  0  0
   50.6817   -8.3563    2.3175 C   0  0  0  0  0  0  0  0  0  0  0  0
   48.9477  -11.3853    1.0357 N   0  0  0  0  0  0  0  0  0  0  0  0
   47.7991  -11.0214    0.2699 C   0  0  0  0  0  0  0  0  0  0  0  0
   46.9766  -11.8792    1.2104 C   0  0  0  0  0  0  0  0  0  0  0  0
   48.1420  -11.6436    2.1692 C   0  0  0  0  0  0  0  0  0  0  0  0
   66.0284   -8.2301   -5.9378 C   0  0  0  0  0  0  0  0  0  0  0  0
   65.9432   -6.7499   -5.6562 C   0  0  0  0  0  0  0  0  0  0  0  0
   66.8371   -6.1686   -4.8192 C   0  0  0  0  0  0  0  0  0  0  0  0
   66.7184   -4.7854   -4.5326 C   0  0  0  0  0  0  0  0  0  0  0  0
   65.6877   -4.0469   -5.1128 C   0  0  0  0  0  0  0  0  0  0  0  0
   64.8168   -4.7563   -5.9638 C   0  0  0  0  0  0  0  0  0  0  0  0
   64.9204   -6.0496   -6.2424 C   0  0  0  0  0  0  0  0  0  0  0  0
 18 19  2  0  0  0
 19 17  1  0  0  0
 17  1  1  0  0  0
  1  2  1  0  0  0
  2  3  1  0  0  0
  3  4  2  0  0  0
  3  5  1  0  0  0
  5  6  1  0  0  0
  6 20  1  0  0  0
 20 21  1  0  0  0
 21 22  2  0  0  0
 22 23  1  0  0  0
 23 24  2  0  0  0
 24 25  1  0  0  0
 24 26  1  0  0  0
 26 27  2  0  0  0
  6  7  1  0  0  0
  7  8  2  0  0  0
  7  9  1  0  0  0
  9 29  1  0  0  0
 29 30  1  0  0  0
 30 31  2  0  0  0
 31 32  1  0  0  0
 32 33  2  0  0  0
 33 34  1  0  0  0
 34 35  1  0  0  0
 35 40  1  0  0  0
 40 41  2  0  0  0
 40 42  1  0  0  0
 42 44  1  0  0  0
 44 45  2  0  0  0
 45 46  1  0  0  0
 46 47  2  0  0  0
 47 50  1  0  0  0
 50 51  1  0  0  0
 51 52  1  0  0  0
 52 53  1  0  0  0
 53 56  1  0  0  0
 56 57  1  0  0  0
 57 58  1  0  0  0
 58 59  1  0  0  0
 53 54  1  0  0  0
 54 55  1  0  0  0
 47 48  1  0  0  0
 48 49  2  0  0  0
 35 36  2  0  0  0
 36 37  1  0  0  0
 37 38  1  0  0  0
 37 39  1  0  0  0
  9 10  1  0  0  0
 10 11  1  0  0  0
 11 12  1  0  0  0
 12 13  1  0  0  0
 13 14  2  0  0  0
 13 15  1  0  0  0
 15 60  1  0  0  0
 60 61  1  0  0  0
 61 62  2  0  0  0
 62 63  1  0  0  0
 63 64  2  0  0  0
 64 65  1  0  0  0
 65 66  2  0  0  0
 12  1  1  0  0  0
 66 61  1  0  0  0
 11  5  1  0  0  0
 27 21  1  0  0  0
 39 30  1  0  0  0
 39 34  2  0  0  0
 49 44  1  0  0  0
 55 50  1  0  0  0
 59 56  1  0  0  0
 25 28  1  0  0  0
 42 43  1  0  0  0
 15 16  1  0  0  0
M  END
> <minimizedAffinity>
-6.72187

> <CNNscore>
0.0723590627

> <CNNaffinity>
6.6715378761

> <CNN_VS>
0.4827462137

> <CNNaffinity_variance>
0.1444271207

$$$$
[H]Oc1c([H])c([H])c(C([H])([H])[C@@]2([H])C(=O)N(C([H])([H])c3c([H])c([H])c([H])c4c(C(=O)N([H])c5c([H])nc(N6C([H])([H])C([H])([H])C([H])(N7C([H])([H])C([H])([H])C7([H])[H])C([H])([H])C6([H])[H])c([H])c5[H])c([H])n(C([H])([H])[H])c34)C([H])([H])[C@]3([H])N(C(=O)N([H])C([H])([H])c4c([H])c([H])c([H])c([H])c4[H])N(C([H])([H])C([H])=C([H])[H])C([H])([H])C(=O)N23)c([H])c1[H]


 66 74  0  0  0  0  0  0  0  0999 V2000
   62.9880   -7.5125    0.5705 N   0  0  0  0  0  0  0  0  0  0  0  0
   62.0967   -8.4856    1.1761 C   0  0  0  0  0  0  0  0  0  0  0  0
   60.8130   -8.2787    0.3901 C   0  0  0  0  0  0  0  0  0  0  0  0
   59.7720   -8.1007    1.0480 O   0  0  0  0  0  0  0  0  0  0  0  0
   60.8576   -8.3019   -1.0038 N   0  0  0  0  0  0  0  0  0  0  0  0
   59.6943   -8.6508   -1.7684 C   0  0  0  0  0  0  0  0  0  0  0  0
   60.0256  -10.0460   -2.2433 C   0  0  0  0  0  0  0  0  0  0  0  0
   59.1891  -10.9327   -2.2286 O   0  0  0  0  0  0  0  0  0  0  0  0
   61.3380  -10.2730   -2.7028 N   0  0  0  0  0  0  0  0  0  0  0  0
   62.3865   -9.2255   -2.6454 C   0  0  0  0  0  0  0  0  0  0  0  0
   62.0840   -8.0896   -1.7258 C   0  0  0  0  0  0  0  0  0  0  0  0
   63.1352   -7.6761   -0.8246 N   0  0  0  0  0  0  0  0  0  0  0  0
   64.4426   -7.3660   -1.3120 C   0  0  0  0  0  0  0  0  0  0  0  0
   65.3247   -7.0687   -0.4376 O   0  0  0  0  0  0  0  0  0  0  0  0
   64.8715   -7.3466   -2.6449 N   0  0  0  0  0  0  0  0  0  0  0  0
   64.2328   -7.5631   -3.4104 H   0  0  0  0  0  0  0  0  0  0  0  0
   62.3981   -6.2291    0.9203 C   0  0  0  0  0  0  0  0  0  0  0  0
   64.0751   -4.8997    2.0662 C   0  0  0  0  0  0  0  0  0  0  0  0
   62.9689   -5.5937    2.0837 C   0  0  0  0  0  0  0  0  0  0  0  0
   59.2843   -7.7858   -2.8839 C   0  0  0  0  0  0  0  0  0  0  0  0
   58.0852   -6.9544   -2.7531 C   0  0  0  0  0  0  0  0  0  0  0  0
   57.9510   -6.0705   -1.6809 C   0  0  0  0  0  0  0  0  0  0  0  0
   56.7979   -5.3336   -1.5146 C   0  0  0  0  0  0  0  0  0  0  0  0
   55.7257   -5.4245   -2.3796 C   0  0  0  0  0  0  0  0  0  0  0  0
   54.5992   -4.6555   -2.1571 O   0  0  0  0  0  0  0  0  0  0  0  0
   55.8521   -6.2899   -3.4301 C   0  0  0  0  0  0  0  0  0  0  0  0
   57.0126   -7.0421   -3.6117 C   0  0  0  0  0  0  0  0  0  0  0  0
   54.5179   -4.0148   -1.3750 H   0  0  0  0  0  0  0  0  0  0  0  0
   61.8059  -11.5514   -3.2414 C   0  0  0  0  0  0  0  0  0  0  0  0
   61.8699  -11.4650   -4.7036 C   0  0  0  0  0  0  0  0  0  0  0  0
   60.9165  -10.7998   -5.4291 C   0  0  0  0  0  0  0  0  0  0  0  0
   60.9381  -10.7615   -6.8128 C   0  0  0  0  0  0  0  0  0  0  0  0
   61.9465  -11.4078   -7.5039 C   0  0  0  0  0  0  0  0  0  0  0  0
   62.9274  -12.0894   -6.7724 C   0  0  0  0  0  0  0  0  0  0  0  0
   64.0251  -12.7803   -7.1633 C   0  0  0  0  0  0  0  0  0  0  0  0
   64.6427  -13.2149   -6.0256 C   0  0  0  0  0  0  0  0  0  0  0  0
   63.9689  -12.8232   -4.9299 N   0  0  0  0  0  0  0  0  0  0  0  0
   64.3251  -13.0975   -3.5600 C   0  0  0  0  0  0  0  0  0  0  0  0
   62.8922  -12.1200   -5.3835 C   0  0  0  0  0  0  0  0  0  0  0  0
   64.5206  -13.0875   -8.5489 C   0  0  0  0  0  0  0  0  0  0  0  0
   65.6774  -12.7445   -8.8737 O   0  0  0  0  0  0  0  0  0  0  0  0
   63.6191  -13.7642   -9.3910 N   0  0  0  0  0  0  0  0  0  0  0  0
   64.6793  -13.9865  -10.2466 H   0  0  0  0  0  0  0  0  0  0  0  0
   62.7965  -14.3917  -10.1856 C   0  0  0  0  0  0  0  0  0  0  0  0
   61.5424  -13.8258  -10.4950 C   0  0  0  0  0  0  0  0  0  0  0  0
   60.6309  -14.4050  -11.2971 C   0  0  0  0  0  0  0  0  0  0  0  0
   60.9273  -15.6292  -11.8516 C   0  0  0  0  0  0  0  0  0  0  0  0
   62.1092  -16.2373  -11.6020 N   0  0  0  0  0  0  0  0  0  0  0  0
   63.0218  -15.6432  -10.7988 C   0  0  0  0  0  0  0  0  0  0  0  0
   59.9827  -16.3259  -12.6697 N   0  0  0  0  0  0  0  0  0  0  0  0
   59.9031  -17.7623  -12.5694 C   0  0  0  0  0  0  0  0  0  0  0  0
   58.5435  -18.3489  -12.6685 C   0  0  0  0  0  0  0  0  0  0  0  0
   57.4658  -17.4172  -13.0982 C   0  0  0  0  0  0  0  0  0  0  0  0
   57.9585  -16.3326  -14.0507 C   0  0  0  0  0  0  0  0  0  0  0  0
   59.1562  -15.5982  -13.5915 C   0  0  0  0  0  0  0  0  0  0  0  0
   56.3354  -18.0174  -13.7128 N   0  0  0  0  0  0  0  0  0  0  0  0
   55.3042  -17.1491  -14.1826 C   0  0  0  0  0  0  0  0  0  0  0  0
   54.3270  -18.2835  -13.9479 C   0  0  0  0  0  0  0  0  0  0  0  0
   55.3965  -18.7751  -12.9745 C   0  0  0  0  0  0  0  0  0  0  0  0
   66.2469   -7.0034   -2.9953 C   0  0  0  0  0  0  0  0  0  0  0  0
   66.2720   -5.8143   -3.9243 C   0  0  0  0  0  0  0  0  0  0  0  0
   67.3649   -5.0135   -3.9679 C   0  0  0  0  0  0  0  0  0  0  0  0
   67.3566   -3.8771   -4.8152 C   0  0  0  0  0  0  0  0  0  0  0  0
   66.2288   -3.6007   -5.5871 C   0  0  0  0  0  0  0  0  0  0  0  0
   65.1514   -4.5001   -5.4589 C   0  0  0  0  0  0  0  0  0  0  0  0
   65.1493   -5.5689   -4.6723 C   0  0  0  0  0  0  0  0  0  0  0  0
 18 19  2  0  0  0
 19 17  1  0  0  0
 17  1  1  0  0  0
  1  2  1  0  0  0
  2  3  1  0  0  0
  3  4  2  0  0  0
  3  5  1  0  0  0
  5  6  1  0  0  0
  6 20  1  0  0  0
 20 21  1  0  0  0
 21 22  2  0  0  0
 22 23  1  0  0  0
 23 24  2  0  0  0
 24 25  1  0  0  0
 24 26  1  0  0  0
 26 27  2  0  0  0
  6  7  1  0  0  0
  7  8  2  0  0  0
  7  9  1  0  0  0
  9 29  1  0  0  0
 29 30  1  0  0  0
 30 31  2  0  0  0
 31 32  1  0  0  0
 32 33  2  0  0  0
 33 34  1  0  0  0
 34 35  1  0  0  0
 35 40  1  0  0  0
 40 41  2  0  0  0
 40 42  1  0  0  0
 42 44  1  0  0  0
 44 45  2  0  0  0
 45 46  1  0  0  0
 46 47  2  0  0  0
 47 50  1  0  0  0
 50 51  1  0  0  0
 51 52  1  0  0  0
 52 53  1  0  0  0
 53 56  1  0  0  0
 56 57  1  0  0  0
 57 58  1  0  0  0
 58 59  1  0  0  0
 53 54  1  0  0  0
 54 55  1  0  0  0
 47 48  1  0  0  0
 48 49  2  0  0  0
 35 36  2  0  0  0
 36 37  1  0  0  0
 37 38  1  0  0  0
 37 39  1  0  0  0
  9 10  1  0  0  0
 10 11  1  0  0  0
 11 12  1  0  0  0
 12 13  1  0  0  0
 13 14  2  0  0  0
 13 15  1  0  0  0
 15 60  1  0  0  0
 60 61  1  0  0  0
 61 62  2  0  0  0
 62 63  1  0  0  0
 63 64  2  0  0  0
 64 65  1  0  0  0
 65 66  2  0  0  0
 12  1  1  0  0  0
 66 61  1  0  0  0
 11  5  1  0  0  0
 27 21  1  0  0  0
 39 30  1  0  0  0
 39 34  2  0  0  0
 49 44  1  0  0  0
 55 50  1  0  0  0
 59 56  1  0  0  0
 25 28  1  0  0  0
 42 43  1  0  0  0
 15 16  1  0  0  0
M  END
> <minimizedAffinity>
-6.41385

> <CNNscore>
0.0673070028

> <CNNaffinity>
6.3422193527

> <CNN_VS>
0.4268757701

> <CNNaffinity_variance>
0.1397410333

$$$$
[H]c1nc(Oc2c([H])c([H])c(C(=O)N([H])C([H])([H])C([H])([H])N3C([H])([H])C([H])([H])C([H])([H])C3([H])[H])c([H])c2[H])c(N([H])S(=O)(=O)c2c([H])c([H])c(Cl)c(Cl)c2[H])c([H])c1Cl


 38 41  0  0  0  0  0  0  0  0999 V2000
   56.2501   -4.2936   -7.5469 C   0  0  0  0  0  0  0  0  0  0  0  0
   57.3398   -5.0739   -7.6628 N   0  0  0  0  0  0  0  0  0  0  0  0
   57.9500   -5.2545   -8.8376 C   0  0  0  0  0  0  0  0  0  0  0  0
   57.4536   -4.6315   -9.9407 C   0  0  0  0  0  0  0  0  0  0  0  0
   58.2623   -4.8756  -11.4792 Cl  0  0  0  0  0  0  0  0  0  0  0  0
   56.3183   -3.8129   -9.8425 C   0  0  0  0  0  0  0  0  0  0  0  0
   55.7050   -3.6406   -8.6259 C   0  0  0  0  0  0  0  0  0  0  0  0
   54.5726   -2.8185   -8.4241 N   0  0  0  0  0  0  0  0  0  0  0  0
   54.6805   -1.8272   -8.0573 H   0  0  0  0  0  0  0  0  0  0  0  0
   53.0060   -3.4218   -8.7732 S   0  0  0  0  0  0  0  0  0  0  0  0
   52.2316   -2.3451   -9.5226 O   0  0  0  0  0  0  0  0  0  0  0  0
   53.1805   -4.6267   -9.6948 O   0  0  0  0  0  0  0  0  0  0  0  0
   52.0833   -3.9147   -7.4034 C   0  0  0  0  0  0  0  0  0  0  0  0
   52.4269   -5.0615   -6.6793 C   0  0  0  0  0  0  0  0  0  0  0  0
   51.6622   -5.4108   -5.6038 C   0  0  0  0  0  0  0  0  0  0  0  0
   50.5663   -4.6516   -5.2294 C   0  0  0  0  0  0  0  0  0  0  0  0
   49.5982   -5.1122   -3.8534 Cl  0  0  0  0  0  0  0  0  0  0  0  0
   50.2216   -3.5126   -5.9454 C   0  0  0  0  0  0  0  0  0  0  0  0
   48.8341   -2.5850   -5.4398 Cl  0  0  0  0  0  0  0  0  0  0  0  0
   50.9984   -3.1553   -7.0397 C   0  0  0  0  0  0  0  0  0  0  0  0
   55.6688   -4.1549   -6.2822 O   0  0  0  0  0  0  0  0  0  0  0  0
   56.4142   -6.8960   -3.1943 C   0  0  0  0  0  0  0  0  0  0  0  0
   56.1804   -7.3374   -4.5054 C   0  0  0  0  0  0  0  0  0  0  0  0
   55.9350   -6.4251   -5.5160 C   0  0  0  0  0  0  0  0  0  0  0  0
   55.9121   -5.0721   -5.2751 C   0  0  0  0  0  0  0  0  0  0  0  0
   56.1433   -4.6657   -3.9841 C   0  0  0  0  0  0  0  0  0  0  0  0
   56.3911   -5.5578   -2.9549 C   0  0  0  0  0  0  0  0  0  0  0  0
   56.8867   -9.0988   -2.4678 O   0  0  0  0  0  0  0  0  0  0  0  0
   56.6836   -7.8709   -2.1488 C   0  0  0  0  0  0  0  0  0  0  0  0
   56.7345   -7.5331   -0.7814 N   0  0  0  0  0  0  0  0  0  0  0  0
   56.5637   -6.5246   -0.5460 H   0  0  0  0  0  0  0  0  0  0  0  0
   56.9910   -8.4273    0.3115 C   0  0  0  0  0  0  0  0  0  0  0  0
   58.4678   -8.4624    0.5940 C   0  0  0  0  0  0  0  0  0  0  0  0
   59.0775   -7.2237    0.2047 N   0  0  0  0  0  0  0  0  0  0  0  0
   60.1338   -7.3240   -0.7432 C   0  0  0  0  0  0  0  0  0  0  0  0
   61.4350   -7.0695   -0.0005 C   0  0  0  0  0  0  0  0  0  0  0  0
   60.9892   -6.2114    1.1488 C   0  0  0  0  0  0  0  0  0  0  0  0
   59.4993   -6.3881    1.2835 C   0  0  0  0  0  0  0  0  0  0  0  0
 28 29  2  0  0  0
 29 30  1  0  0  0
 30 32  1  0  0  0
 32 33  1  0  0  0
 33 34  1  0  0  0
 34 35  1  0  0  0
 35 36  1  0  0  0
 36 37  1  0  0  0
 37 38  1  0  0  0
 29 22  1  0  0  0
 22 23  2  0  0  0
 23 24  1  0  0  0
 24 25  2  0  0  0
 25 21  1  0  0  0
 21  1  1  0  0  0
  1  2  2  0  0  0
  2  3  1  0  0  0
  3  4  2  0  0  0
  4  5  1  0  0  0
  4  6  1  0  0  0
  6  7  2  0  0  0
  7  8  1  0  0  0
  8 10  1  0  0  0
 10 11  2  0  0  0
 10 12  2  0  0  0
 10 13  1  0  0  0
 13 14  2  0  0  0
 14 15  1  0  0  0
 15 16  2  0  0  0
 16 17  1  0  0  0
 16 18  1  0  0  0
 18 19  1  0  0  0
 18 20  2  0  0  0
 25 26  1  0  0  0
 26 27  2  0  0  0
 38 34  1  0  0  0
 27 22  1  0  0  0
  7  1  1  0  0  0
 20 13  1  0  0  0
 30 31  1  0  0  0
  8  9  1  0  0  0
M  END
> <minimizedAffinity>
-8.85783

> <CNNscore>
0.7731004953

> <CNNaffinity>
7.6662459373

> <CNN_VS>
5.9267783165

> <CNNaffinity_variance>
0.0767758265

$$$$
[H]c1nc(Oc2c([H])c([H])c(C(=O)N([H])C([H])([H])C([H])([H])N3C([H])([H])C([H])([H])C([H])([H])C3([H])[H])c([H])c2[H])c(N([H])S(=O)(=O)c2c([H])c([H])c(Cl)c(Cl)c2[H])c([H])c1Cl


 38 41  0  0  0  0  0  0  0  0999 V2000
   56.5256   -4.0898   -7.4337 C   0  0  0  0  0  0  0  0  0  0  0  0
   57.6815   -4.7385   -7.6632 N   0  0  0  0  0  0  0  0  0  0  0  0
   58.0740   -5.0535   -8.9009 C   0  0  0  0  0  0  0  0  0  0  0  0
   57.2819   -4.7072   -9.9516 C   0  0  0  0  0  0  0  0  0  0  0  0
   57.8063   -5.1259  -11.5734 Cl  0  0  0  0  0  0  0  0  0  0  0  0
   56.0722   -4.0299   -9.7351 C   0  0  0  0  0  0  0  0  0  0  0  0
   55.6862   -3.7158   -8.4551 C   0  0  0  0  0  0  0  0  0  0  0  0
   54.4989   -3.0159   -8.1399 N   0  0  0  0  0  0  0  0  0  0  0  0
   54.5329   -2.1181   -7.5729 H   0  0  0  0  0  0  0  0  0  0  0  0
   52.9851   -3.6173   -8.6757 S   0  0  0  0  0  0  0  0  0  0  0  0
   52.6418   -2.9464   -9.9995 O   0  0  0  0  0  0  0  0  0  0  0  0
   53.1539   -5.1154   -8.9183 O   0  0  0  0  0  0  0  0  0  0  0  0
   51.6721   -3.3886   -7.5827 C   0  0  0  0  0  0  0  0  0  0  0  0
   50.7915   -2.3116   -7.7313 C   0  0  0  0  0  0  0  0  0  0  0  0
   49.7691   -2.1731   -6.8373 C   0  0  0  0  0  0  0  0  0  0  0  0
   49.5990   -3.0756   -5.8008 C   0  0  0  0  0  0  0  0  0  0  0  0
   48.2884   -2.8838   -4.6658 Cl  0  0  0  0  0  0  0  0  0  0  0  0
   50.4709   -4.1459   -5.6496 C   0  0  0  0  0  0  0  0  0  0  0  0
   50.2206   -5.2590   -4.3306 Cl  0  0  0  0  0  0  0  0  0  0  0  0
   51.5115   -4.2888   -6.5580 C   0  0  0  0  0  0  0  0  0  0  0  0
   56.1851   -3.7958   -6.1092 O   0  0  0  0  0  0  0  0  0  0  0  0
   54.3011   -6.6642   -3.6954 C   0  0  0  0  0  0  0  0  0  0  0  0
   55.1738   -5.7178   -3.1376 C   0  0  0  0  0  0  0  0  0  0  0  0
   55.7903   -4.7767   -3.9427 C   0  0  0  0  0  0  0  0  0  0  0  0
   55.5726   -4.7357   -5.2992 C   0  0  0  0  0  0  0  0  0  0  0  0
   54.7149   -5.6726   -5.8206 C   0  0  0  0  0  0  0  0  0  0  0  0
   54.0855   -6.6248   -5.0372 C   0  0  0  0  0  0  0  0  0  0  0  0
   54.3558   -8.5612   -2.2805 O   0  0  0  0  0  0  0  0  0  0  0  0
   53.6525   -7.6366   -2.8294 C   0  0  0  0  0  0  0  0  0  0  0  0
   52.2700   -7.6170   -2.5564 N   0  0  0  0  0  0  0  0  0  0  0  0
   51.7168   -6.8535   -3.0176 H   0  0  0  0  0  0  0  0  0  0  0  0
   51.5503   -8.5342   -1.7194 C   0  0  0  0  0  0  0  0  0  0  0  0
   50.7948   -7.7671   -0.6694 C   0  0  0  0  0  0  0  0  0  0  0  0
   50.3857   -8.6448    0.3888 N   0  0  0  0  0  0  0  0  0  0  0  0
   50.0856   -9.9813    0.0042 C   0  0  0  0  0  0  0  0  0  0  0  0
   48.5754  -10.1414    0.0620 C   0  0  0  0  0  0  0  0  0  0  0  0
   48.1800   -9.1152    1.0850 C   0  0  0  0  0  0  0  0  0  0  0  0
   49.3300   -8.1509    1.2145 C   0  0  0  0  0  0  0  0  0  0  0  0
 28 29  2  0  0  0
 29 30  1  0  0  0
 30 32  1  0  0  0
 32 33  1  0  0  0
 33 34  1  0  0  0
 34 35  1  0  0  0
 35 36  1  0  0  0
 36 37  1  0  0  0
 37 38  1  0  0  0
 29 22  1  0  0  0
 22 23  2  0  0  0
 23 24  1  0  0  0
 24 25  2  0  0  0
 25 21  1  0  0  0
 21  1  1  0  0  0
  1  2  2  0  0  0
  2  3  1  0  0  0
  3  4  2  0  0  0
  4  5  1  0  0  0
  4  6  1  0  0  0
  6  7  2  0  0  0
  7  8  1  0  0  0
  8 10  1  0  0  0
 10 11  2  0  0  0
 10 12  2  0  0  0
 10 13  1  0  0  0
 13 14  2  0  0  0
 14 15  1  0  0  0
 15 16  2  0  0  0
 16 17  1  0  0  0
 16 18  1  0  0  0
 18 19  1  0  0  0
 18 20  2  0  0  0
 25 26  1  0  0  0
 26 27  2  0  0  0
 38 34  1  0  0  0
 27 22  1  0  0  0
  7  1  1  0  0  0
 20 13  1  0  0  0
 30 31  1  0  0  0
  8  9  1  0  0  0
M  END
> <minimizedAffinity>
-9.75256

> <CNNscore>
0.7275260091

> <CNNaffinity>
8.0114803314

> <CNN_VS>
5.8285603523

> <CNNaffinity_variance>
0.0922756791

$$$$
[H]c1nc(Oc2c([H])c([H])c(C(=O)N([H])C([H])([H])C([H])([H])N3C([H])([H])C([H])([H])C([H])([H])C3([H])[H])c([H])c2[H])c(N([H])S(=O)(=O)c2c([H])c([H])c(Cl)c(Cl)c2[H])c([H])c1Cl


 38 41  0  0  0  0  0  0  0  0999 V2000
   56.4773   -4.0288   -7.7026 C   0  0  0  0  0  0  0  0  0  0  0  0
   57.5972   -4.6900   -8.0466 N   0  0  0  0  0  0  0  0  0  0  0  0
   57.8736   -4.9842   -9.3203 C   0  0  0  0  0  0  0  0  0  0  0  0
   56.9980   -4.6032  -10.2895 C   0  0  0  0  0  0  0  0  0  0  0  0
   57.3702   -4.9947  -11.9595 Cl  0  0  0  0  0  0  0  0  0  0  0  0
   55.8240   -3.9124   -9.9532 C   0  0  0  0  0  0  0  0  0  0  0  0
   55.5577   -3.6202   -8.6381 C   0  0  0  0  0  0  0  0  0  0  0  0
   54.4149   -2.9092   -8.2050 N   0  0  0  0  0  0  0  0  0  0  0  0
   54.5137   -2.0325   -7.6130 H   0  0  0  0  0  0  0  0  0  0  0  0
   52.8504   -3.4625   -8.6366 S   0  0  0  0  0  0  0  0  0  0  0  0
   52.2347   -2.4592   -9.6034 O   0  0  0  0  0  0  0  0  0  0  0  0
   53.0261   -4.7940   -9.3630 O   0  0  0  0  0  0  0  0  0  0  0  0
   51.7634   -3.7011   -7.3204 C   0  0  0  0  0  0  0  0  0  0  0  0
   50.6426   -2.8802   -7.1550 C   0  0  0  0  0  0  0  0  0  0  0  0
   49.8140   -3.1085   -6.0944 C   0  0  0  0  0  0  0  0  0  0  0  0
   50.0696   -4.1299   -5.1948 C   0  0  0  0  0  0  0  0  0  0  0  0
   49.0019   -4.4078   -3.8437 Cl  0  0  0  0  0  0  0  0  0  0  0  0
   51.1811   -4.9469   -5.3551 C   0  0  0  0  0  0  0  0  0  0  0  0
   51.4659   -6.2215   -4.1995 Cl  0  0  0  0  0  0  0  0  0  0  0  0
   52.0252   -4.7165   -6.4336 C   0  0  0  0  0  0  0  0  0  0  0  0
   56.2600   -3.7584   -6.3475 O   0  0  0  0  0  0  0  0  0  0  0  0
   54.9720   -6.7202   -3.6694 C   0  0  0  0  0  0  0  0  0  0  0  0
   54.9040   -6.9268   -5.0554 C   0  0  0  0  0  0  0  0  0  0  0  0
   55.3308   -5.9432   -5.9298 C   0  0  0  0  0  0  0  0  0  0  0  0
   55.8302   -4.7450   -5.4779 C   0  0  0  0  0  0  0  0  0  0  0  0
   55.8859   -4.5672   -4.1176 C   0  0  0  0  0  0  0  0  0  0  0  0
   55.4653   -5.5351   -3.2214 C   0  0  0  0  0  0  0  0  0  0  0  0
   54.3122   -8.9507   -3.2302 O   0  0  0  0  0  0  0  0  0  0  0  0
   54.5307   -7.7724   -2.7670 C   0  0  0  0  0  0  0  0  0  0  0  0
   54.3272   -7.5633   -1.3881 N   0  0  0  0  0  0  0  0  0  0  0  0
   54.5107   -6.5923   -1.0341 H   0  0  0  0  0  0  0  0  0  0  0  0
   53.8933   -8.5395   -0.4299 C   0  0  0  0  0  0  0  0  0  0  0  0
   52.8876   -7.9172    0.4992 C   0  0  0  0  0  0  0  0  0  0  0  0
   51.8374   -8.8497    0.7910 N   0  0  0  0  0  0  0  0  0  0  0  0
   51.5195   -9.7696   -0.2468 C   0  0  0  0  0  0  0  0  0  0  0  0
   50.1902   -9.3381   -0.8436 C   0  0  0  0  0  0  0  0  0  0  0  0
   49.5402   -8.6161    0.3020 C   0  0  0  0  0  0  0  0  0  0  0  0
   50.6288   -8.2696    1.2838 C   0  0  0  0  0  0  0  0  0  0  0  0
 28 29  2  0  0  0
 29 30  1  0  0  0
 30 32  1  0  0  0
 32 33  1  0  0  0
 33 34  1  0  0  0
 34 35  1  0  0  0
 35 36  1  0  0  0
 36 37  1  0  0  0
 37 38  1  0  0  0
 29 22  1  0  0  0
 22 23  2  0  0  0
 23 24  1  0  0  0
 24 25  2  0  0  0
 25 21  1  0  0  0
 21  1  1  0  0  0
  1  2  2  0  0  0
  2  3  1  0  0  0
  3  4  2  0  0  0
  4  5  1  0  0  0
  4  6  1  0  0  0
  6  7  2  0  0  0
  7  8  1  0  0  0
  8 10  1  0  0  0
 10 11  2  0  0  0
 10 12  2  0  0  0
 10 13  1  0  0  0
 13 14  2  0  0  0
 14 15  1  0  0  0
 15 16  2  0  0  0
 16 17  1  0  0  0
 16 18  1  0  0  0
 18 19  1  0  0  0
 18 20  2  0  0  0
 25 26  1  0  0  0
 26 27  2  0  0  0
 38 34  1  0  0  0
 27 22  1  0  0  0
  7  1  1  0  0  0
 20 13  1  0  0  0
 30 31  1  0  0  0
  8  9  1  0  0  0
M  END
> <minimizedAffinity>
-9.23456

> <CNNscore>
0.7271067500

> <CNNaffinity>
7.9537820816

> <CNN_VS>
5.7832484245

> <CNNaffinity_variance>
0.1247202381

$$$$
[H]c1nc(Oc2c([H])c([H])c(C(=O)N([H])C([H])([H])C([H])([H])N3C([H])([H])C([H])([H])C([H])([H])C3([H])[H])c([H])c2[H])c(N([H])S(=O)(=O)c2c([H])c([H])c(Cl)c(Cl)c2[H])c([H])c1Cl


 38 41  0  0  0  0  0  0  0  0999 V2000
   56.5830   -4.1100   -8.0954 C   0  0  0  0  0  0  0  0  0  0  0  0
   57.6279   -4.8058   -8.5787 N   0  0  0  0  0  0  0  0  0  0  0  0
   57.7616   -5.0516   -9.8851 C   0  0  0  0  0  0  0  0  0  0  0  0
   56.8152   -4.5842  -10.7437 C   0  0  0  0  0  0  0  0  0  0  0  0
   56.9998   -4.9129  -12.4580 Cl  0  0  0  0  0  0  0  0  0  0  0  0
   55.7172   -3.8560  -10.2613 C   0  0  0  0  0  0  0  0  0  0  0  0
   55.5976   -3.6145   -8.9147 C   0  0  0  0  0  0  0  0  0  0  0  0
   54.5413   -2.8722   -8.3384 N   0  0  0  0  0  0  0  0  0  0  0  0
   54.7433   -2.0552   -7.6900 H   0  0  0  0  0  0  0  0  0  0  0  0
   52.9150   -3.2900   -8.6858 S   0  0  0  0  0  0  0  0  0  0  0  0
   52.2338   -2.0850   -9.3218 O   0  0  0  0  0  0  0  0  0  0  0  0
   52.9478   -4.4256   -9.7060 O   0  0  0  0  0  0  0  0  0  0  0  0
   51.9800   -3.8031   -7.3317 C   0  0  0  0  0  0  0  0  0  0  0  0
   52.3237   -4.9543   -6.6147 C   0  0  0  0  0  0  0  0  0  0  0  0
   51.5490   -5.3198   -5.5518 C   0  0  0  0  0  0  0  0  0  0  0  0
   50.4431   -4.5724   -5.1830 C   0  0  0  0  0  0  0  0  0  0  0  0
   49.4624   -5.0537   -3.8231 Cl  0  0  0  0  0  0  0  0  0  0  0  0
   50.0983   -3.4292   -5.8921 C   0  0  0  0  0  0  0  0  0  0  0  0
   48.6979   -2.5169   -5.3940 Cl  0  0  0  0  0  0  0  0  0  0  0  0
   50.8851   -3.0554   -6.9736 C   0  0  0  0  0  0  0  0  0  0  0  0
   56.5149   -3.8944   -6.7149 O   0  0  0  0  0  0  0  0  0  0  0  0
   54.8284   -6.7855   -4.1849 C   0  0  0  0  0  0  0  0  0  0  0  0
   55.1245   -5.4995   -3.7086 C   0  0  0  0  0  0  0  0  0  0  0  0
   55.6811   -4.5538   -4.5512 C   0  0  0  0  0  0  0  0  0  0  0  0
   55.9597   -4.8366   -5.8671 C   0  0  0  0  0  0  0  0  0  0  0  0
   55.6612   -6.1019   -6.3087 C   0  0  0  0  0  0  0  0  0  0  0  0
   55.1041   -7.0663   -5.4863 C   0  0  0  0  0  0  0  0  0  0  0  0
   54.8261   -8.8817   -3.0850 O   0  0  0  0  0  0  0  0  0  0  0  0
   54.2309   -7.7609   -3.2861 C   0  0  0  0  0  0  0  0  0  0  0  0
   53.0130   -7.5369   -2.6131 N   0  0  0  0  0  0  0  0  0  0  0  0
   52.5453   -6.6150   -2.7949 H   0  0  0  0  0  0  0  0  0  0  0  0
   52.3538   -8.4407   -1.7140 C   0  0  0  0  0  0  0  0  0  0  0  0
   51.8303   -7.6760   -0.5294 C   0  0  0  0  0  0  0  0  0  0  0  0
   52.7450   -7.7776    0.5708 N   0  0  0  0  0  0  0  0  0  0  0  0
   53.5023   -6.6076    0.8571 C   0  0  0  0  0  0  0  0  0  0  0  0
   54.9267   -6.8649    0.3941 C   0  0  0  0  0  0  0  0  0  0  0  0
   55.0304   -8.3608    0.4821 C   0  0  0  0  0  0  0  0  0  0  0  0
   53.6252   -8.9016    0.5280 C   0  0  0  0  0  0  0  0  0  0  0  0
 28 29  2  0  0  0
 29 30  1  0  0  0
 30 32  1  0  0  0
 32 33  1  0  0  0
 33 34  1  0  0  0
 34 35  1  0  0  0
 35 36  1  0  0  0
 36 37  1  0  0  0
 37 38  1  0  0  0
 29 22  1  0  0  0
 22 23  2  0  0  0
 23 24  1  0  0  0
 24 25  2  0  0  0
 25 21  1  0  0  0
 21  1  1  0  0  0
  1  2  2  0  0  0
  2  3  1  0  0  0
  3  4  2  0  0  0
  4  5  1  0  0  0
  4  6  1  0  0  0
  6  7  2  0  0  0
  7  8  1  0  0  0
  8 10  1  0  0  0
 10 11  2  0  0  0
 10 12  2  0  0  0
 10 13  1  0  0  0
 13 14  2  0  0  0
 14 15  1  0  0  0
 15 16  2  0  0  0
 16 17  1  0  0  0
 16 18  1  0  0  0
 18 19  1  0  0  0
 18 20  2  0  0  0
 25 26  1  0  0  0
 26 27  2  0  0  0
 38 34  1  0  0  0
 27 22  1  0  0  0
  7  1  1  0  0  0
 20 13  1  0  0  0
 30 31  1  0  0  0
  8  9  1  0  0  0
M  END
> <minimizedAffinity>
-9.41224

> <CNNscore>
0.6774262190

> <CNNaffinity>
7.8831720352

> <CNN_VS>
5.3402676582

> <CNNaffinity_variance>
0.2670391500

$$$$
[H]c1nc(Oc2c([H])c([H])c(C(=O)N([H])C([H])([H])C([H])([H])N3C([H])([H])C([H])([H])C([H])([H])C3([H])[H])c([H])c2[H])c(N([H])S(=O)(=O)c2c([H])c([H])c(Cl)c(Cl)c2[H])c([H])c1Cl


 38 41  0  0  0  0  0  0  0  0999 V2000
   56.1158   -4.6488   -7.3224 C   0  0  0  0  0  0  0  0  0  0  0  0
   57.2295   -5.3906   -7.4608 N   0  0  0  0  0  0  0  0  0  0  0  0
   57.9044   -5.4324   -8.6132 C   0  0  0  0  0  0  0  0  0  0  0  0
   57.4502   -4.7049   -9.6695 C   0  0  0  0  0  0  0  0  0  0  0  0
   58.3437   -4.7670  -11.1790 Cl  0  0  0  0  0  0  0  0  0  0  0  0
   56.2909   -3.9241   -9.5471 C   0  0  0  0  0  0  0  0  0  0  0  0
   55.6111   -3.8951   -8.3543 C   0  0  0  0  0  0  0  0  0  0  0  0
   54.4492   -3.1217   -8.1285 N   0  0  0  0  0  0  0  0  0  0  0  0
   54.5095   -2.1848   -7.6312 H   0  0  0  0  0  0  0  0  0  0  0  0
   52.9239   -3.6966   -8.6606 S   0  0  0  0  0  0  0  0  0  0  0  0
   52.6041   -3.0444   -9.9995 O   0  0  0  0  0  0  0  0  0  0  0  0
   53.0570   -5.2029   -8.8720 O   0  0  0  0  0  0  0  0  0  0  0  0
   51.6113   -3.4136   -7.5799 C   0  0  0  0  0  0  0  0  0  0  0  0
   50.7726   -2.3055   -7.7412 C   0  0  0  0  0  0  0  0  0  0  0  0
   49.7486   -2.1245   -6.8566 C   0  0  0  0  0  0  0  0  0  0  0  0
   49.5365   -3.0146   -5.8172 C   0  0  0  0  0  0  0  0  0  0  0  0
   48.2246   -2.7685   -4.6943 Cl  0  0  0  0  0  0  0  0  0  0  0  0
   50.3668   -4.1157   -5.6534 C   0  0  0  0  0  0  0  0  0  0  0  0
   50.0643   -5.2120   -4.3312 Cl  0  0  0  0  0  0  0  0  0  0  0  0
   51.4088   -4.3019   -6.5523 C   0  0  0  0  0  0  0  0  0  0  0  0
   55.4663   -4.6577   -6.0835 O   0  0  0  0  0  0  0  0  0  0  0  0
   57.2315   -6.4825   -2.7432 C   0  0  0  0  0  0  0  0  0  0  0  0
   56.6870   -5.1927   -2.6527 C   0  0  0  0  0  0  0  0  0  0  0  0
   56.1078   -4.5999   -3.7605 C   0  0  0  0  0  0  0  0  0  0  0  0
   56.0457   -5.2449   -4.9727 C   0  0  0  0  0  0  0  0  0  0  0  0
   56.5859   -6.5056   -5.0354 C   0  0  0  0  0  0  0  0  0  0  0  0
   57.1711   -7.1211   -3.9420 C   0  0  0  0  0  0  0  0  0  0  0  0
   57.0738   -7.3948   -0.5645 O   0  0  0  0  0  0  0  0  0  0  0  0
   57.8238   -7.0932   -1.5632 C   0  0  0  0  0  0  0  0  0  0  0  0
   59.2004   -7.3762   -1.4566 N   0  0  0  0  0  0  0  0  0  0  0  0
   59.7923   -7.1193   -2.2844 H   0  0  0  0  0  0  0  0  0  0  0  0
   59.8665   -7.9729   -0.3341 C   0  0  0  0  0  0  0  0  0  0  0  0
   61.3490   -7.9973   -0.5862 C   0  0  0  0  0  0  0  0  0  0  0  0
   61.6511   -8.8646   -1.6880 N   0  0  0  0  0  0  0  0  0  0  0  0
   62.1890  -10.1366   -1.3459 C   0  0  0  0  0  0  0  0  0  0  0  0
   63.6663  -10.1147   -1.7017 C   0  0  0  0  0  0  0  0  0  0  0  0
   63.7190   -9.0941   -2.8025 C   0  0  0  0  0  0  0  0  0  0  0  0
   62.4525   -8.2831   -2.7175 C   0  0  0  0  0  0  0  0  0  0  0  0
 28 29  2  0  0  0
 29 30  1  0  0  0
 30 32  1  0  0  0
 32 33  1  0  0  0
 33 34  1  0  0  0
 34 35  1  0  0  0
 35 36  1  0  0  0
 36 37  1  0  0  0
 37 38  1  0  0  0
 29 22  1  0  0  0
 22 23  2  0  0  0
 23 24  1  0  0  0
 24 25  2  0  0  0
 25 21  1  0  0  0
 21  1  1  0  0  0
  1  2  2  0  0  0
  2  3  1  0  0  0
  3  4  2  0  0  0
  4  5  1  0  0  0
  4  6  1  0  0  0
  6  7  2  0  0  0
  7  8  1  0  0  0
  8 10  1  0  0  0
 10 11  2  0  0  0
 10 12  2  0  0  0
 10 13  1  0  0  0
 13 14  2  0  0  0
 14 15  1  0  0  0
 15 16  2  0  0  0
 16 17  1  0  0  0
 16 18  1  0  0  0
 18 19  1  0  0  0
 18 20  2  0  0  0
 25 26  1  0  0  0
 26 27  2  0  0  0
 38 34  1  0  0  0
 27 22  1  0  0  0
  7  1  1  0  0  0
 20 13  1  0  0  0
 30 31  1  0  0  0
  8  9  1  0  0  0
M  END
> <minimizedAffinity>
-8.51316

> <CNNscore>
0.6574831605

> <CNNaffinity>
7.4622163773

> <CNN_VS>
4.9062814713

> <CNNaffinity_variance>
0.0848463699

$$$$
[H]c1nc(Oc2c([H])c([H])c(C(=O)N([H])C([H])([H])C([H])([H])N3C([H])([H])C([H])([H])C([H])([H])C3([H])[H])c([H])c2[H])c(N([H])S(=O)(=O)c2c([H])c([H])c(Cl)c(Cl)c2[H])c([H])c1Cl


 38 41  0  0  0  0  0  0  0  0999 V2000
   56.1463   -4.4303   -7.3603 C   0  0  0  0  0  0  0  0  0  0  0  0
   57.2193   -5.2392   -7.4235 N   0  0  0  0  0  0  0  0  0  0  0  0
   57.9083   -5.4015   -8.5567 C   0  0  0  0  0  0  0  0  0  0  0  0
   57.5111   -4.7297   -9.6712 C   0  0  0  0  0  0  0  0  0  0  0  0
   58.4227   -4.9501  -11.1549 Cl  0  0  0  0  0  0  0  0  0  0  0  0
   56.3950   -3.8806   -9.6278 C   0  0  0  0  0  0  0  0  0  0  0  0
   55.6997   -3.7279   -8.4534 C   0  0  0  0  0  0  0  0  0  0  0  0
   54.5790   -2.8786   -8.3063 N   0  0  0  0  0  0  0  0  0  0  0  0
   54.6947   -1.8851   -7.9481 H   0  0  0  0  0  0  0  0  0  0  0  0
   53.0140   -3.4521   -8.7089 S   0  0  0  0  0  0  0  0  0  0  0  0
   52.2850   -2.3600   -9.4812 O   0  0  0  0  0  0  0  0  0  0  0  0
   53.1968   -4.6585   -9.6269 O   0  0  0  0  0  0  0  0  0  0  0  0
   52.0372   -3.9301   -7.3717 C   0  0  0  0  0  0  0  0  0  0  0  0
   52.3030   -5.1126   -6.6728 C   0  0  0  0  0  0  0  0  0  0  0  0
   51.4978   -5.4482   -5.6227 C   0  0  0  0  0  0  0  0  0  0  0  0
   50.4367   -4.6405   -5.2493 C   0  0  0  0  0  0  0  0  0  0  0  0
   49.4161   -5.0840   -3.9060 Cl  0  0  0  0  0  0  0  0  0  0  0  0
   50.1693   -3.4660   -5.9403 C   0  0  0  0  0  0  0  0  0  0  0  0
   48.8233   -2.4779   -5.4370 Cl  0  0  0  0  0  0  0  0  0  0  0  0
   50.9873   -3.1226   -7.0088 C   0  0  0  0  0  0  0  0  0  0  0  0
   55.4785   -4.3136   -6.1368 O   0  0  0  0  0  0  0  0  0  0  0  0
   56.2083   -6.9695   -2.9718 C   0  0  0  0  0  0  0  0  0  0  0  0
   55.7038   -7.4330   -4.1961 C   0  0  0  0  0  0  0  0  0  0  0  0
   55.4660   -6.5485   -5.2331 C   0  0  0  0  0  0  0  0  0  0  0  0
   55.7127   -5.2026   -5.1027 C   0  0  0  0  0  0  0  0  0  0  0  0
   56.2057   -4.7743   -3.8949 C   0  0  0  0  0  0  0  0  0  0  0  0
   56.4521   -5.6383   -2.8417 C   0  0  0  0  0  0  0  0  0  0  0  0
   55.5810   -8.0854   -0.9806 O   0  0  0  0  0  0  0  0  0  0  0  0
   56.4641   -7.9179   -1.8988 C   0  0  0  0  0  0  0  0  0  0  0  0
   57.6494   -8.6754   -1.8125 N   0  0  0  0  0  0  0  0  0  0  0  0
   58.3558   -8.5197   -2.5731 H   0  0  0  0  0  0  0  0  0  0  0  0
   57.9835   -9.6278   -0.7923 C   0  0  0  0  0  0  0  0  0  0  0  0
   59.3872  -10.1223   -1.0088 C   0  0  0  0  0  0  0  0  0  0  0  0
   59.3798  -11.2880   -1.8446 N   0  0  0  0  0  0  0  0  0  0  0  0
   59.7250  -12.5112   -1.2052 C   0  0  0  0  0  0  0  0  0  0  0  0
   61.1211  -12.8886   -1.6719 C   0  0  0  0  0  0  0  0  0  0  0  0
   61.2049  -12.2209   -3.0148 C   0  0  0  0  0  0  0  0  0  0  0  0
   60.1252  -11.1714   -3.0574 C   0  0  0  0  0  0  0  0  0  0  0  0
 28 29  2  0  0  0
 29 30  1  0  0  0
 30 32  1  0  0  0
 32 33  1  0  0  0
 33 34  1  0  0  0
 34 35  1  0  0  0
 35 36  1  0  0  0
 36 37  1  0  0  0
 37 38  1  0  0  0
 29 22  1  0  0  0
 22 23  2  0  0  0
 23 24  1  0  0  0
 24 25  2  0  0  0
 25 21  1  0  0  0
 21  1  1  0  0  0
  1  2  2  0  0  0
  2  3  1  0  0  0
  3  4  2  0  0  0
  4  5  1  0  0  0
  4  6  1  0  0  0
  6  7  2  0  0  0
  7  8  1  0  0  0
  8 10  1  0  0  0
 10 11  2  0  0  0
 10 12  2  0  0  0
 10 13  1  0  0  0
 13 14  2  0  0  0
 14 15  1  0  0  0
 15 16  2  0  0  0
 16 17  1  0  0  0
 16 18  1  0  0  0
 18 19  1  0  0  0
 18 20  2  0  0  0
 25 26  1  0  0  0
 26 27  2  0  0  0
 38 34  1  0  0  0
 27 22  1  0  0  0
  7  1  1  0  0  0
 20 13  1  0  0  0
 30 31  1  0  0  0
  8  9  1  0  0  0
M  END
> <minimizedAffinity>
-8.80582

> <CNNscore>
0.6329746246

> <CNNaffinity>
7.4150328636

> <CNN_VS>
4.6935276985

> <CNNaffinity_variance>
0.0547220930

$$$$
[H]c1nc(Oc2c([H])c([H])c(C(=O)N([H])C([H])([H])C([H])([H])N3C([H])([H])C([H])([H])C([H])([H])C3([H])[H])c([H])c2[H])c(N([H])S(=O)(=O)c2c([H])c([H])c(Cl)c(Cl)c2[H])c([H])c1Cl


 38 41  0  0  0  0  0  0  0  0999 V2000
   58.7839   -5.4993   -9.1801 C   0  0  0  0  0  0  0  0  0  0  0  0
   59.1328   -5.1511  -10.4318 N   0  0  0  0  0  0  0  0  0  0  0  0
   58.2417   -4.6544  -11.2946 C   0  0  0  0  0  0  0  0  0  0  0  0
   56.9513   -4.4985  -10.8925 C   0  0  0  0  0  0  0  0  0  0  0  0
   55.7885   -3.8456  -12.0337 Cl  0  0  0  0  0  0  0  0  0  0  0  0
   56.5656   -4.8549   -9.5914 C   0  0  0  0  0  0  0  0  0  0  0  0
   57.4964   -5.3645   -8.7197 C   0  0  0  0  0  0  0  0  0  0  0  0
   57.2084   -5.7294   -7.3845 N   0  0  0  0  0  0  0  0  0  0  0  0
   57.6420   -6.5986   -6.9542 H   0  0  0  0  0  0  0  0  0  0  0  0
   56.1489   -4.7628   -6.4446 S   0  0  0  0  0  0  0  0  0  0  0  0
   56.5400   -4.9053   -4.9792 O   0  0  0  0  0  0  0  0  0  0  0  0
   56.3657   -3.3117   -6.8676 O   0  0  0  0  0  0  0  0  0  0  0  0
   54.4733   -5.1319   -6.6084 C   0  0  0  0  0  0  0  0  0  0  0  0
   53.8302   -5.0231   -7.8462 C   0  0  0  0  0  0  0  0  0  0  0  0
   52.5009   -5.3242   -7.9225 C   0  0  0  0  0  0  0  0  0  0  0  0
   51.7946   -5.7299   -6.8026 C   0  0  0  0  0  0  0  0  0  0  0  0
   50.0959   -6.1096   -6.9164 Cl  0  0  0  0  0  0  0  0  0  0  0  0
   52.4290   -5.8390   -5.5720 C   0  0  0  0  0  0  0  0  0  0  0  0
   51.5025   -6.3536   -4.1870 Cl  0  0  0  0  0  0  0  0  0  0  0  0
   53.7813   -5.5334   -5.4921 C   0  0  0  0  0  0  0  0  0  0  0  0
   59.7753   -6.0119   -8.3367 O   0  0  0  0  0  0  0  0  0  0  0  0
   63.0975   -8.0770   -9.8538 C   0  0  0  0  0  0  0  0  0  0  0  0
   61.8005   -8.5876  -10.0134 C   0  0  0  0  0  0  0  0  0  0  0  0
   60.7120   -7.8988   -9.5087 C   0  0  0  0  0  0  0  0  0  0  0  0
   60.8603   -6.7059   -8.8422 C   0  0  0  0  0  0  0  0  0  0  0  0
   62.1394   -6.2279   -8.6988 C   0  0  0  0  0  0  0  0  0  0  0  0
   63.2453   -6.8974   -9.1942 C   0  0  0  0  0  0  0  0  0  0  0  0
   65.4049   -8.5996   -9.9349 O   0  0  0  0  0  0  0  0  0  0  0  0
   64.2273   -8.8100  -10.4038 C   0  0  0  0  0  0  0  0  0  0  0  0
   64.0953   -9.7548  -11.4413 N   0  0  0  0  0  0  0  0  0  0  0  0
   63.1240   -9.9078  -11.8086 H   0  0  0  0  0  0  0  0  0  0  0  0
   65.1515  -10.5185  -12.0420 C   0  0  0  0  0  0  0  0  0  0  0  0
   64.6883  -11.9336  -12.2542 C   0  0  0  0  0  0  0  0  0  0  0  0
   63.3942  -11.9451  -12.8729 N   0  0  0  0  0  0  0  0  0  0  0  0
   62.4217  -12.7834  -12.2599 C   0  0  0  0  0  0  0  0  0  0  0  0
   62.2307  -13.9911  -13.1625 C   0  0  0  0  0  0  0  0  0  0  0  0
   62.6057  -13.4490  -14.5122 C   0  0  0  0  0  0  0  0  0  0  0  0
   63.3955  -12.1874  -14.2805 C   0  0  0  0  0  0  0  0  0  0  0  0
 28 29  2  0  0  0
 29 30  1  0  0  0
 30 32  1  0  0  0
 32 33  1  0  0  0
 33 34  1  0  0  0
 34 35  1  0  0  0
 35 36  1  0  0  0
 36 37  1  0  0  0
 37 38  1  0  0  0
 29 22  1  0  0  0
 22 23  2  0  0  0
 23 24  1  0  0  0
 24 25  2  0  0  0
 25 21  1  0  0  0
 21  1  1  0  0  0
  1  2  2  0  0  0
  2  3  1  0  0  0
  3  4  2  0  0  0
  4  5  1  0  0  0
  4  6  1  0  0  0
  6  7  2  0  0  0
  7  8  1  0  0  0
  8 10  1  0  0  0
 10 11  2  0  0  0
 10 12  2  0  0  0
 10 13  1  0  0  0
 13 14  2  0  0  0
 14 15  1  0  0  0
 15 16  2  0  0  0
 16 17  1  0  0  0
 16 18  1  0  0  0
 18 19  1  0  0  0
 18 20  2  0  0  0
 25 26  1  0  0  0
 26 27  2  0  0  0
 38 34  1  0  0  0
 27 22  1  0  0  0
  7  1  1  0  0  0
 20 13  1  0  0  0
 30 31  1  0  0  0
  8  9  1  0  0  0
M  END
> <minimizedAffinity>
-6.79828

> <CNNscore>
0.3496046364

> <CNNaffinity>
6.3201150894

> <CNN_VS>
2.2095415592

> <CNNaffinity_variance>
0.1550540924

$$$$
[H]c1nc(Oc2c([H])c([H])c(C(=O)N([H])C([H])([H])C([H])([H])N3C([H])([H])C([H])([H])C([H])([H])C3([H])[H])c([H])c2[H])c(N([H])S(=O)(=O)c2c([H])c([H])c(Cl)c(Cl)c2[H])c([H])c1Cl


 38 41  0  0  0  0  0  0  0  0999 V2000
   56.1355   -3.9221   -8.0399 C   0  0  0  0  0  0  0  0  0  0  0  0
   57.2719   -4.2775   -8.6660 N   0  0  0  0  0  0  0  0  0  0  0  0
   57.2927   -4.5623   -9.9712 C   0  0  0  0  0  0  0  0  0  0  0  0
   56.1337   -4.4891  -10.6802 C   0  0  0  0  0  0  0  0  0  0  0  0
   56.1718   -4.8654  -12.3941 Cl  0  0  0  0  0  0  0  0  0  0  0  0
   54.9370   -4.1202  -10.0473 C   0  0  0  0  0  0  0  0  0  0  0  0
   54.9364   -3.8321   -8.7046 C   0  0  0  0  0  0  0  0  0  0  0  0
   53.7873   -3.4296   -7.9859 N   0  0  0  0  0  0  0  0  0  0  0  0
   53.6092   -2.4029   -7.7789 H   0  0  0  0  0  0  0  0  0  0  0  0
   52.6656   -4.6062   -7.4403 S   0  0  0  0  0  0  0  0  0  0  0  0
   52.2325   -5.4482   -8.6336 O   0  0  0  0  0  0  0  0  0  0  0  0
   53.4005   -5.5066   -6.4500 O   0  0  0  0  0  0  0  0  0  0  0  0
   51.2590   -3.9804   -6.6651 C   0  0  0  0  0  0  0  0  0  0  0  0
   50.5489   -2.9094   -7.2184 C   0  0  0  0  0  0  0  0  0  0  0  0
   49.4430   -2.4487   -6.5639 C   0  0  0  0  0  0  0  0  0  0  0  0
   49.0248   -3.0236   -5.3754 C   0  0  0  0  0  0  0  0  0  0  0  0
   47.6103   -2.4223   -4.5505 Cl  0  0  0  0  0  0  0  0  0  0  0  0
   49.7269   -4.0867   -4.8227 C   0  0  0  0  0  0  0  0  0  0  0  0
   49.1658   -4.7814   -3.3247 Cl  0  0  0  0  0  0  0  0  0  0  0  0
   50.8521   -4.5570   -5.4870 C   0  0  0  0  0  0  0  0  0  0  0  0
   56.1963   -3.6394   -6.6713 O   0  0  0  0  0  0  0  0  0  0  0  0
   56.3558   -6.7455   -3.8552 C   0  0  0  0  0  0  0  0  0  0  0  0
   55.9900   -5.4466   -3.4714 C   0  0  0  0  0  0  0  0  0  0  0  0
   55.9413   -4.4294   -4.4080 C   0  0  0  0  0  0  0  0  0  0  0  0
   56.2449   -4.6523   -5.7299 C   0  0  0  0  0  0  0  0  0  0  0  0
   56.6002   -5.9316   -6.0799 C   0  0  0  0  0  0  0  0  0  0  0  0
   56.6568   -6.9669   -5.1624 C   0  0  0  0  0  0  0  0  0  0  0  0
   55.2997   -8.4133   -2.5487 O   0  0  0  0  0  0  0  0  0  0  0  0
   56.3878   -7.8037   -2.8574 C   0  0  0  0  0  0  0  0  0  0  0  0
   57.5697   -8.2017   -2.2010 N   0  0  0  0  0  0  0  0  0  0  0  0
   58.4448   -7.6878   -2.4690 H   0  0  0  0  0  0  0  0  0  0  0  0
   57.6913   -9.2300   -1.2072 C   0  0  0  0  0  0  0  0  0  0  0  0
   57.6556   -8.6098    0.1625 C   0  0  0  0  0  0  0  0  0  0  0  0
   58.9839   -8.4993    0.6924 N   0  0  0  0  0  0  0  0  0  0  0  0
   59.3741   -7.1997    1.1205 C   0  0  0  0  0  0  0  0  0  0  0  0
   60.3558   -6.6599    0.0937 C   0  0  0  0  0  0  0  0  0  0  0  0
   60.9477   -7.9158   -0.4797 C   0  0  0  0  0  0  0  0  0  0  0  0
   60.0147   -9.0459   -0.1315 C   0  0  0  0  0  0  0  0  0  0  0  0
 28 29  2  0  0  0
 29 30  1  0  0  0
 30 32  1  0  0  0
 32 33  1  0  0  0
 33 34  1  0  0  0
 34 35  1  0  0  0
 35 36  1  0  0  0
 36 37  1  0  0  0
 37 38  1  0  0  0
 29 22  1  0  0  0
 22 23  2  0  0  0
 23 24  1  0  0  0
 24 25  2  0  0  0
 25 21  1  0  0  0
 21  1  1  0  0  0
  1  2  2  0  0  0
  2  3  1  0  0  0
  3  4  2  0  0  0
  4  5  1  0  0  0
  4  6  1  0  0  0
  6  7  2  0  0  0
  7  8  1  0  0  0
  8 10  1  0  0  0
 10 11  2  0  0  0
 10 12  2  0  0  0
 10 13  1  0  0  0
 13 14  2  0  0  0
 14 15  1  0  0  0
 15 16  2  0  0  0
 16 17  1  0  0  0
 16 18  1  0  0  0
 18 19  1  0  0  0
 18 20  2  0  0  0
 25 26  1  0  0  0
 26 27  2  0  0  0
 38 34  1  0  0  0
 27 22  1  0  0  0
  7  1  1  0  0  0
 20 13  1  0  0  0
 30 31  1  0  0  0
  8  9  1  0  0  0
M  END
> <minimizedAffinity>
-7.97652

> <CNNscore>
0.3328410387

> <CNNaffinity>
7.0645561218

> <CNN_VS>
2.3513741493

> <CNNaffinity_variance>
0.1711228192

$$$$
[H]c1nc(Oc2c([H])c([H])c(C(=O)N([H])C([H])([H])C([H])([H])N3C([H])([H])C([H])([H])C([H])([H])C3([H])[H])c([H])c2[H])c(N([H])S(=O)(=O)c2c([H])c([H])c(Cl)c(Cl)c2[H])c([H])c1Cl


 38 41  0  0  0  0  0  0  0  0999 V2000
   52.0149   -5.5578   -6.0760 C   0  0  0  0  0  0  0  0  0  0  0  0
   51.3563   -5.4541   -4.9075 N   0  0  0  0  0  0  0  0  0  0  0  0
   50.3849   -4.5544   -4.7285 C   0  0  0  0  0  0  0  0  0  0  0  0
   50.0571   -3.7253   -5.7564 C   0  0  0  0  0  0  0  0  0  0  0  0
   48.7799   -2.5467   -5.5109 Cl  0  0  0  0  0  0  0  0  0  0  0  0
   50.7309   -3.8163   -6.9838 C   0  0  0  0  0  0  0  0  0  0  0  0
   51.7270   -4.7473   -7.1475 C   0  0  0  0  0  0  0  0  0  0  0  0
   52.4448   -4.9294   -8.3519 N   0  0  0  0  0  0  0  0  0  0  0  0
   52.2851   -5.7903   -8.9536 H   0  0  0  0  0  0  0  0  0  0  0  0
   53.5863   -3.7517   -8.8522 S   0  0  0  0  0  0  0  0  0  0  0  0
   53.1858   -3.2494  -10.2334 O   0  0  0  0  0  0  0  0  0  0  0  0
   53.4978   -2.5889   -7.8665 O   0  0  0  0  0  0  0  0  0  0  0  0
   55.2227   -4.2897   -8.9122 C   0  0  0  0  0  0  0  0  0  0  0  0
   55.8679   -4.7605   -7.7635 C   0  0  0  0  0  0  0  0  0  0  0  0
   57.1656   -5.1723   -7.8633 C   0  0  0  0  0  0  0  0  0  0  0  0
   57.8382   -5.1287   -9.0730 C   0  0  0  0  0  0  0  0  0  0  0  0
   59.4969   -5.6572   -9.1836 Cl  0  0  0  0  0  0  0  0  0  0  0  0
   57.2016   -4.6619  -10.2156 C   0  0  0  0  0  0  0  0  0  0  0  0
   58.0851   -4.6238  -11.7187 Cl  0  0  0  0  0  0  0  0  0  0  0  0
   55.8814   -4.2426  -10.1164 C   0  0  0  0  0  0  0  0  0  0  0  0
   53.0192   -6.5254   -6.1843 O   0  0  0  0  0  0  0  0  0  0  0  0
   56.4671   -6.4285   -3.7954 C   0  0  0  0  0  0  0  0  0  0  0  0
   55.5135   -5.4021   -3.7218 C   0  0  0  0  0  0  0  0  0  0  0  0
   54.3804   -5.4435   -4.5145 C   0  0  0  0  0  0  0  0  0  0  0  0
   54.1514   -6.4778   -5.3902 C   0  0  0  0  0  0  0  0  0  0  0  0
   55.0995   -7.4695   -5.4440 C   0  0  0  0  0  0  0  0  0  0  0  0
   56.2417   -7.4518   -4.6619 C   0  0  0  0  0  0  0  0  0  0  0  0
   57.7100   -5.4891   -2.0132 O   0  0  0  0  0  0  0  0  0  0  0  0
   57.6450   -6.3729   -2.9436 C   0  0  0  0  0  0  0  0  0  0  0  0
   58.7366   -7.2525   -3.0878 N   0  0  0  0  0  0  0  0  0  0  0  0
   58.6606   -7.9642   -3.8556 H   0  0  0  0  0  0  0  0  0  0  0  0
   59.9336   -7.2672   -2.2962 C   0  0  0  0  0  0  0  0  0  0  0  0
   60.8654   -8.3270   -2.8164 C   0  0  0  0  0  0  0  0  0  0  0  0
   61.1818   -8.0778   -4.1932 N   0  0  0  0  0  0  0  0  0  0  0  0
   61.0389   -9.1872   -5.0724 C   0  0  0  0  0  0  0  0  0  0  0  0
   62.4364   -9.6632   -5.4326 C   0  0  0  0  0  0  0  0  0  0  0  0
   63.2559   -8.4151   -5.2680 C   0  0  0  0  0  0  0  0  0  0  0  0
   62.4500   -7.4626   -4.4238 C   0  0  0  0  0  0  0  0  0  0  0  0
 28 29  2  0  0  0
 29 30  1  0  0  0
 30 32  1  0  0  0
 32 33  1  0  0  0
 33 34  1  0  0  0
 34 35  1  0  0  0
 35 36  1  0  0  0
 36 37  1  0  0  0
 37 38  1  0  0  0
 29 22  1  0  0  0
 22 23  2  0  0  0
 23 24  1  0  0  0
 24 25  2  0  0  0
 25 21  1  0  0  0
 21  1  1  0  0  0
  1  2  2  0  0  0
  2  3  1  0  0  0
  3  4  2  0  0  0
  4  5  1  0  0  0
  4  6  1  0  0  0
  6  7  2  0  0  0
  7  8  1  0  0  0
  8 10  1  0  0  0
 10 11  2  0  0  0
 10 12  2  0  0  0
 10 13  1  0  0  0
 13 14  2  0  0  0
 14 15  1  0  0  0
 15 16  2  0  0  0
 16 17  1  0  0  0
 16 18  1  0  0  0
 18 19  1  0  0  0
 18 20  2  0  0  0
 25 26  1  0  0  0
 26 27  2  0  0  0
 38 34  1  0  0  0
 27 22  1  0  0  0
  7  1  1  0  0  0
 20 13  1  0  0  0
 30 31  1  0  0  0
  8  9  1  0  0  0
M  END
> <minimizedAffinity>
-8.47723

> <CNNscore>
0.3276331127

> <CNNaffinity>
7.1028494835

> <CNN_VS>
2.3271286488

> <CNNaffinity_variance>
0.3678202033

$$$$
[H]c1c([H])c(N([H])c2nc(N([H])[H])nc(C([H])([H])Cl)n2)c([H])c([H])c1OC([H])([H])[H]


 21 22  0  0  0  0  0  0  0  0999 V2000
   53.4406   -3.3647   -9.0357 C   0  0  0  0  0  0  0  0  0  0  0  0
   52.4399   -2.4951   -8.8596 N   0  0  0  0  0  0  0  0  0  0  0  0
   51.4443   -2.6065   -7.9780 C   0  0  0  0  0  0  0  0  0  0  0  0
   50.4129   -1.6374   -7.8490 N   0  0  0  0  0  0  0  0  0  0  0  0
   51.4308   -3.7065   -7.1715 N   0  0  0  0  0  0  0  0  0  0  0  0
   52.4121   -4.6276   -7.2948 C   0  0  0  0  0  0  0  0  0  0  0  0
   53.3787   -4.4538   -8.1982 N   0  0  0  0  0  0  0  0  0  0  0  0
   50.5596   -0.6712   -8.2097 H   0  0  0  0  0  0  0  0  0  0  0  0
   49.5113   -1.8886   -7.3957 H   0  0  0  0  0  0  0  0  0  0  0  0
   54.4947   -3.2534   -9.9641 N   0  0  0  0  0  0  0  0  0  0  0  0
   54.3142   -2.5888  -10.7673 H   0  0  0  0  0  0  0  0  0  0  0  0
   58.1828   -5.2252  -10.1374 C   0  0  0  0  0  0  0  0  0  0  0  0
   57.6093   -5.0241   -8.9073 C   0  0  0  0  0  0  0  0  0  0  0  0
   56.3717   -4.3760   -8.7922 C   0  0  0  0  0  0  0  0  0  0  0  0
   55.7150   -3.9313   -9.9186 C   0  0  0  0  0  0  0  0  0  0  0  0
   56.3287   -4.1522  -11.1720 C   0  0  0  0  0  0  0  0  0  0  0  0
   57.5435   -4.7897  -11.2739 C   0  0  0  0  0  0  0  0  0  0  0  0
   60.1465   -6.1104   -9.0783 C   0  0  0  0  0  0  0  0  0  0  0  0
   59.3966   -5.8631  -10.2252 O   0  0  0  0  0  0  0  0  0  0  0  0
   52.4359   -5.8475   -6.4317 C   0  0  0  0  0  0  0  0  0  0  0  0
   54.0326   -6.6195   -6.5532 Cl  0  0  0  0  0  0  0  0  0  0  0  0
 18 19  1  0  0  0
 19 12  1  0  0  0
 12 13  2  0  0  0
 13 14  1  0  0  0
 14 15  2  0  0  0
 15 10  1  0  0  0
 10  1  1  0  0  0
  1  2  2  0  0  0
  2  3  1  0  0  0
  3  4  1  0  0  0
  3  5  2  0  0  0
  5  6  1  0  0  0
  6 20  1  0  0  0
 20 21  1  0  0  0
  6  7  2  0  0  0
 15 16  1  0  0  0
 16 17  2  0  0  0
 17 12  1  0  0  0
  7  1  1  0  0  0
 10 11  1  0  0  0
  4  8  1  0  0  0
  4  9  1  0  0  0
M  END
> <minimizedAffinity>
-7.95839

> <CNNscore>
0.9659650326

> <CNNaffinity>
6.0980129242

> <CNN_VS>
5.8904671669

> <CNNaffinity_variance>
0.1214938015

$$$$
[H]c1c([H])c(N([H])c2nc(N([H])[H])nc(C([H])([H])Cl)n2)c([H])c([H])c1OC([H])([H])[H]


 21 22  0  0  0  0  0  0  0  0999 V2000
   53.0897   -3.3762   -8.6916 C   0  0  0  0  0  0  0  0  0  0  0  0
   52.0969   -2.4923   -8.5437 N   0  0  0  0  0  0  0  0  0  0  0  0
   51.0418   -2.6194   -7.7365 C   0  0  0  0  0  0  0  0  0  0  0  0
   50.0235   -1.6335   -7.6331 N   0  0  0  0  0  0  0  0  0  0  0  0
   50.9518   -3.7530   -6.9833 N   0  0  0  0  0  0  0  0  0  0  0  0
   51.9207   -4.6901   -7.0822 C   0  0  0  0  0  0  0  0  0  0  0  0
   52.9495   -4.4991   -7.9102 N   0  0  0  0  0  0  0  0  0  0  0  0
   50.2135   -0.6561   -7.9392 H   0  0  0  0  0  0  0  0  0  0  0  0
   49.0885   -1.8836   -7.2529 H   0  0  0  0  0  0  0  0  0  0  0  0
   54.2063   -3.2485   -9.5415 N   0  0  0  0  0  0  0  0  0  0  0  0
   54.0525   -2.6390  -10.3926 H   0  0  0  0  0  0  0  0  0  0  0  0
   57.8960   -5.0363   -8.6990 C   0  0  0  0  0  0  0  0  0  0  0  0
   57.5017   -4.9437  -10.0099 C   0  0  0  0  0  0  0  0  0  0  0  0
   56.2791   -4.3477  -10.3489 C   0  0  0  0  0  0  0  0  0  0  0  0
   55.4560   -3.8465   -9.3645 C   0  0  0  0  0  0  0  0  0  0  0  0
   55.8876   -3.9552   -8.0235 C   0  0  0  0  0  0  0  0  0  0  0  0
   57.0896   -4.5417   -7.7016 C   0  0  0  0  0  0  0  0  0  0  0  0
   59.9595   -6.0393   -9.4043 C   0  0  0  0  0  0  0  0  0  0  0  0
   59.0989   -5.6248   -8.3912 O   0  0  0  0  0  0  0  0  0  0  0  0
   51.8616   -5.9467   -6.2754 C   0  0  0  0  0  0  0  0  0  0  0  0
   50.7902   -5.6962   -4.8791 Cl  0  0  0  0  0  0  0  0  0  0  0  0
 18 19  1  0  0  0
 19 12  1  0  0  0
 12 13  2  0  0  0
 13 14  1  0  0  0
 14 15  2  0  0  0
 15 10  1  0  0  0
 10  1  1  0  0  0
  1  2  2  0  0  0
  2  3  1  0  0  0
  3  4  1  0  0  0
  3  5  2  0  0  0
  5  6  1  0  0  0
  6 20  1  0  0  0
 20 21  1  0  0  0
  6  7  2  0  0  0
 15 16  1  0  0  0
 16 17  2  0  0  0
 17 12  1  0  0  0
  7  1  1  0  0  0
 10 11  1  0  0  0
  4  8  1  0  0  0
  4  9  1  0  0  0
M  END
> <minimizedAffinity>
-7.84196

> <CNNscore>
0.9601927996

> <CNNaffinity>
6.1558260918

> <CNN_VS>
5.9107799530

> <CNNaffinity_variance>
0.0786093101

$$$$
[H]c1c([H])c(N([H])c2nc(N([H])[H])nc(C([H])([H])Cl)n2)c([H])c([H])c1OC([H])([H])[H]


 21 22  0  0  0  0  0  0  0  0999 V2000
   53.5234   -3.5389   -8.8772 C   0  0  0  0  0  0  0  0  0  0  0  0
   54.1746   -3.5493  -10.0453 N   0  0  0  0  0  0  0  0  0  0  0  0
   55.4133   -3.9998  -10.2536 C   0  0  0  0  0  0  0  0  0  0  0  0
   56.0404   -3.9778  -11.5287 N   0  0  0  0  0  0  0  0  0  0  0  0
   56.0948   -4.5008   -9.1835 N   0  0  0  0  0  0  0  0  0  0  0  0
   55.4976   -4.5213   -7.9712 C   0  0  0  0  0  0  0  0  0  0  0  0
   54.2552   -4.0544   -7.8332 N   0  0  0  0  0  0  0  0  0  0  0  0
   55.4615   -3.9020  -12.3914 H   0  0  0  0  0  0  0  0  0  0  0  0
   57.0759   -4.0372  -11.6046 H   0  0  0  0  0  0  0  0  0  0  0  0
   52.2159   -3.0651   -8.6502 N   0  0  0  0  0  0  0  0  0  0  0  0
   51.8178   -2.4641   -9.4246 H   0  0  0  0  0  0  0  0  0  0  0  0
   49.6734   -3.5554   -5.3615 C   0  0  0  0  0  0  0  0  0  0  0  0
   50.6597   -4.4869   -5.5665 C   0  0  0  0  0  0  0  0  0  0  0  0
   51.5434   -4.3672   -6.6480 C   0  0  0  0  0  0  0  0  0  0  0  0
   51.4302   -3.3078   -7.5213 C   0  0  0  0  0  0  0  0  0  0  0  0
   50.4058   -2.3636   -7.2856 C   0  0  0  0  0  0  0  0  0  0  0  0
   49.5439   -2.4903   -6.2210 C   0  0  0  0  0  0  0  0  0  0  0  0
   49.0303   -4.6937   -3.3485 C   0  0  0  0  0  0  0  0  0  0  0  0
   48.8190   -3.6939   -4.2944 O   0  0  0  0  0  0  0  0  0  0  0  0
   56.2077   -5.0613   -6.7722 C   0  0  0  0  0  0  0  0  0  0  0  0
   55.0495   -5.9478   -5.7558 Cl  0  0  0  0  0  0  0  0  0  0  0  0
 18 19  1  0  0  0
 19 12  1  0  0  0
 12 13  2  0  0  0
 13 14  1  0  0  0
 14 15  2  0  0  0
 15 10  1  0  0  0
 10  1  1  0  0  0
  1  2  2  0  0  0
  2  3  1  0  0  0
  3  4  1  0  0  0
  3  5  2  0  0  0
  5  6  1  0  0  0
  6 20  1  0  0  0
 20 21  1  0  0  0
  6  7  2  0  0  0
 15 16  1  0  0  0
 16 17  2  0  0  0
 17 12  1  0  0  0
  7  1  1  0  0  0
 10 11  1  0  0  0
  4  8  1  0  0  0
  4  9  1  0  0  0
M  END
> <minimizedAffinity>
-7.65961

> <CNNscore>
0.8587564230

> <CNNaffinity>
6.1930274963

> <CNN_VS>
5.3183021545

> <CNNaffinity_variance>
0.1435687244

$$$$
[H]c1c([H])c(N([H])c2nc(N([H])[H])nc(C([H])([H])Cl)n2)c([H])c([H])c1OC([H])([H])[H]


 21 22  0  0  0  0  0  0  0  0999 V2000
   53.9943   -4.3571   -7.6838 C   0  0  0  0  0  0  0  0  0  0  0  0
   53.3517   -3.2853   -8.1603 N   0  0  0  0  0  0  0  0  0  0  0  0
   52.0350   -3.0725   -8.1193 C   0  0  0  0  0  0  0  0  0  0  0  0
   51.4231   -1.9043   -8.6487 N   0  0  0  0  0  0  0  0  0  0  0  0
   51.2552   -4.0298   -7.5394 N   0  0  0  0  0  0  0  0  0  0  0  0
   51.8379   -5.1405   -7.0362 C   0  0  0  0  0  0  0  0  0  0  0  0
   53.1619   -5.2896   -7.1106 N   0  0  0  0  0  0  0  0  0  0  0  0
   51.9912   -1.0451   -8.8044 H   0  0  0  0  0  0  0  0  0  0  0  0
   50.4096   -1.9031   -8.8817 H   0  0  0  0  0  0  0  0  0  0  0  0
   55.3838   -4.5881   -7.7236 N   0  0  0  0  0  0  0  0  0  0  0  0
   55.8464   -4.6931   -6.7779 H   0  0  0  0  0  0  0  0  0  0  0  0
   57.5442   -4.6826  -11.3074 C   0  0  0  0  0  0  0  0  0  0  0  0
   58.1303   -5.2004  -10.1801 C   0  0  0  0  0  0  0  0  0  0  0  0
   57.4487   -5.2011   -8.9552 C   0  0  0  0  0  0  0  0  0  0  0  0
   56.1769   -4.6786   -8.8696 C   0  0  0  0  0  0  0  0  0  0  0  0
   55.5980   -4.1525  -10.0463 C   0  0  0  0  0  0  0  0  0  0  0  0
   56.2755   -4.1571  -11.2435 C   0  0  0  0  0  0  0  0  0  0  0  0
   59.2570   -3.7788  -12.7255 C   0  0  0  0  0  0  0  0  0  0  0  0
   58.2320   -4.6931  -12.4968 O   0  0  0  0  0  0  0  0  0  0  0  0
   51.0214   -6.2140   -6.3924 C   0  0  0  0  0  0  0  0  0  0  0  0
   50.4049   -7.3124   -7.6469 Cl  0  0  0  0  0  0  0  0  0  0  0  0
 18 19  1  0  0  0
 19 12  1  0  0  0
 12 13  2  0  0  0
 13 14  1  0  0  0
 14 15  2  0  0  0
 15 10  1  0  0  0
 10  1  1  0  0  0
  1  2  2  0  0  0
  2  3  1  0  0  0
  3  4  1  0  0  0
  3  5  2  0  0  0
  5  6  1  0  0  0
  6 20  1  0  0  0
 20 21  1  0  0  0
  6  7  2  0  0  0
 15 16  1  0  0  0
 16 17  2  0  0  0
 17 12  1  0  0  0
  7  1  1  0  0  0
 10 11  1  0  0  0
  4  8  1  0  0  0
  4  9  1  0  0  0
M  END
> <minimizedAffinity>
-7.43320

> <CNNscore>
0.8448234797

> <CNNaffinity>
5.8644671440

> <CNN_VS>
4.9544396400

> <CNNaffinity_variance>
0.1579024345

$$$$
[H]c1c([H])c(N([H])c2nc(N([H])[H])nc(C([H])([H])Cl)n2)c([H])c([H])c1OC([H])([H])[H]


 21 22  0  0  0  0  0  0  0  0999 V2000
   53.2692   -3.7246   -8.3923 C   0  0  0  0  0  0  0  0  0  0  0  0
   53.3287   -4.7514   -7.5374 N   0  0  0  0  0  0  0  0  0  0  0  0
   52.4331   -5.0434   -6.5921 C   0  0  0  0  0  0  0  0  0  0  0  0
   52.5654   -6.1561   -5.7181 N   0  0  0  0  0  0  0  0  0  0  0  0
   51.3470   -4.2268   -6.4729 N   0  0  0  0  0  0  0  0  0  0  0  0
   51.2220   -3.1688   -7.3046 C   0  0  0  0  0  0  0  0  0  0  0  0
   52.1557   -2.9344   -8.2286 N   0  0  0  0  0  0  0  0  0  0  0  0
   53.1886   -6.9495   -5.9775 H   0  0  0  0  0  0  0  0  0  0  0  0
   52.0423   -6.1820   -4.8197 H   0  0  0  0  0  0  0  0  0  0  0  0
   54.2108   -3.4105   -9.3924 N   0  0  0  0  0  0  0  0  0  0  0  0
   53.9000   -2.6710  -10.0822 H   0  0  0  0  0  0  0  0  0  0  0  0
   57.9840   -5.0477  -10.1694 C   0  0  0  0  0  0  0  0  0  0  0  0
   57.5761   -4.9430   -8.8635 C   0  0  0  0  0  0  0  0  0  0  0  0
   56.3191   -4.4093   -8.5471 C   0  0  0  0  0  0  0  0  0  0  0  0
   55.4759   -3.9814   -9.5490 C   0  0  0  0  0  0  0  0  0  0  0  0
   55.9218   -4.1015  -10.8843 C   0  0  0  0  0  0  0  0  0  0  0  0
   57.1572   -4.6271  -11.1840 C   0  0  0  0  0  0  0  0  0  0  0  0
   59.9947   -6.1406   -9.4455 C   0  0  0  0  0  0  0  0  0  0  0  0
   59.2205   -5.5743  -10.4549 O   0  0  0  0  0  0  0  0  0  0  0  0
   50.0482   -2.2486   -7.2087 C   0  0  0  0  0  0  0  0  0  0  0  0
   49.1295   -2.6234   -5.7336 Cl  0  0  0  0  0  0  0  0  0  0  0  0
 18 19  1  0  0  0
 19 12  1  0  0  0
 12 13  2  0  0  0
 13 14  1  0  0  0
 14 15  2  0  0  0
 15 10  1  0  0  0
 10  1  1  0  0  0
  1  2  2  0  0  0
  2  3  1  0  0  0
  3  4  1  0  0  0
  3  5  2  0  0  0
  5  6  1  0  0  0
  6 20  1  0  0  0
 20 21  1  0  0  0
  6  7  2  0  0  0
 15 16  1  0  0  0
 16 17  2  0  0  0
 17 12  1  0  0  0
  7  1  1  0  0  0
 10 11  1  0  0  0
  4  8  1  0  0  0
  4  9  1  0  0  0
M  END
> <minimizedAffinity>
-7.81118

> <CNNscore>
0.8296915293

> <CNNaffinity>
5.8694133759

> <CNN_VS>
4.8698024750

> <CNNaffinity_variance>
0.1568469703

$$$$
[H]c1c([H])c(N([H])c2nc(N([H])[H])nc(C([H])([H])Cl)n2)c([H])c([H])c1OC([H])([H])[H]


 21 22  0  0  0  0  0  0  0  0999 V2000
   55.1449   -3.8658   -9.7801 C   0  0  0  0  0  0  0  0  0  0  0  0
   55.8497   -4.4347   -8.7961 N   0  0  0  0  0  0  0  0  0  0  0  0
   57.0724   -4.9584   -8.9029 C   0  0  0  0  0  0  0  0  0  0  0  0
   57.7601   -5.5478   -7.8078 N   0  0  0  0  0  0  0  0  0  0  0  0
   57.6756   -4.9180  -10.1257 N   0  0  0  0  0  0  0  0  0  0  0  0
   57.0208   -4.3573  -11.1666 C   0  0  0  0  0  0  0  0  0  0  0  0
   55.7987   -3.8516  -10.9899 N   0  0  0  0  0  0  0  0  0  0  0  0
   57.4754   -5.3199   -6.8320 H   0  0  0  0  0  0  0  0  0  0  0  0
   58.5472   -6.2063   -7.9763 H   0  0  0  0  0  0  0  0  0  0  0  0
   53.8540   -3.3109   -9.6744 N   0  0  0  0  0  0  0  0  0  0  0  0
   53.5750   -2.6736  -10.4715 H   0  0  0  0  0  0  0  0  0  0  0  0
   50.9628   -3.6879   -6.6711 C   0  0  0  0  0  0  0  0  0  0  0  0
   51.9218   -4.6633   -6.7777 C   0  0  0  0  0  0  0  0  0  0  0  0
   52.9180   -4.5830   -7.7606 C   0  0  0  0  0  0  0  0  0  0  0  0
   52.9446   -3.5186   -8.6348 C   0  0  0  0  0  0  0  0  0  0  0  0
   51.9451   -2.5288   -8.5017 C   0  0  0  0  0  0  0  0  0  0  0  0
   50.9720   -2.6171   -7.5333 C   0  0  0  0  0  0  0  0  0  0  0  0
   49.0884   -2.7517   -5.5000 C   0  0  0  0  0  0  0  0  0  0  0  0
   49.9964   -3.7883   -5.6996 O   0  0  0  0  0  0  0  0  0  0  0  0
   57.6444   -4.2920  -12.5233 C   0  0  0  0  0  0  0  0  0  0  0  0
   56.4135   -4.6609  -13.7517 Cl  0  0  0  0  0  0  0  0  0  0  0  0
 18 19  1  0  0  0
 19 12  1  0  0  0
 12 13  2  0  0  0
 13 14  1  0  0  0
 14 15  2  0  0  0
 15 10  1  0  0  0
 10  1  1  0  0  0
  1  2  2  0  0  0
  2  3  1  0  0  0
  3  4  1  0  0  0
  3  5  2  0  0  0
  5  6  1  0  0  0
  6 20  1  0  0  0
 20 21  1  0  0  0
  6  7  2  0  0  0
 15 16  1  0  0  0
 16 17  2  0  0  0
 17 12  1  0  0  0
  7  1  1  0  0  0
 10 11  1  0  0  0
  4  8  1  0  0  0
  4  9  1  0  0  0
M  END
> <minimizedAffinity>
-7.90593

> <CNNscore>
0.6938027143

> <CNNaffinity>
5.5916051865

> <CNN_VS>
3.8794708252

> <CNNaffinity_variance>
0.1624952853

$$$$
[H]c1c([H])c(N([H])c2nc(N([H])[H])nc(C([H])([H])Cl)n2)c([H])c([H])c1OC([H])([H])[H]


 21 22  0  0  0  0  0  0  0  0999 V2000
   56.1645   -3.8300   -9.8145 C   0  0  0  0  0  0  0  0  0  0  0  0
   57.0707   -4.6562   -9.2805 N   0  0  0  0  0  0  0  0  0  0  0  0
   58.0356   -5.3004   -9.9397 C   0  0  0  0  0  0  0  0  0  0  0  0
   58.9649   -6.1651   -9.3007 N   0  0  0  0  0  0  0  0  0  0  0  0
   58.1201   -5.1093  -11.2877 N   0  0  0  0  0  0  0  0  0  0  0  0
   57.2359   -4.2868  -11.8946 C   0  0  0  0  0  0  0  0  0  0  0  0
   56.2948   -3.6733  -11.1745 N   0  0  0  0  0  0  0  0  0  0  0  0
   59.1247   -6.0888   -8.2741 H   0  0  0  0  0  0  0  0  0  0  0  0
   59.4869   -6.8744   -9.8538 H   0  0  0  0  0  0  0  0  0  0  0  0
   55.1434   -3.1467   -9.1247 N   0  0  0  0  0  0  0  0  0  0  0  0
   55.2129   -2.0914   -9.1547 H   0  0  0  0  0  0  0  0  0  0  0  0
   51.7887   -4.6576   -7.1288 C   0  0  0  0  0  0  0  0  0  0  0  0
   52.9431   -5.3991   -7.1153 C   0  0  0  0  0  0  0  0  0  0  0  0
   54.0980   -4.9369   -7.7613 C   0  0  0  0  0  0  0  0  0  0  0  0
   54.0862   -3.7273   -8.4205 C   0  0  0  0  0  0  0  0  0  0  0  0
   52.8840   -2.9849   -8.4177 C   0  0  0  0  0  0  0  0  0  0  0  0
   51.7561   -3.4475   -7.7803 C   0  0  0  0  0  0  0  0  0  0  0  0
   50.7456   -5.5706   -5.1693 C   0  0  0  0  0  0  0  0  0  0  0  0
   50.6692   -5.1313   -6.4884 O   0  0  0  0  0  0  0  0  0  0  0  0
   57.2923   -4.0491  -13.3690 C   0  0  0  0  0  0  0  0  0  0  0  0
   56.1062   -5.0982  -14.1769 Cl  0  0  0  0  0  0  0  0  0  0  0  0
 18 19  1  0  0  0
 19 12  1  0  0  0
 12 13  2  0  0  0
 13 14  1  0  0  0
 14 15  2  0  0  0
 15 10  1  0  0  0
 10  1  1  0  0  0
  1  2  2  0  0  0
  2  3  1  0  0  0
  3  4  1  0  0  0
  3  5  2  0  0  0
  5  6  1  0  0  0
  6 20  1  0  0  0
 20 21  1  0  0  0
  6  7  2  0  0  0
 15 16  1  0  0  0
 16 17  2  0  0  0
 17 12  1  0  0  0
  7  1  1  0  0  0
 10 11  1  0  0  0
  4  8  1  0  0  0
  4  9  1  0  0  0
M  END
> <minimizedAffinity>
-7.25112

> <CNNscore>
0.6774305701

> <CNNaffinity>
5.6460523605

> <CNN_VS>
3.8248083591

> <CNNaffinity_variance>
0.1525212228

$$$$
[H]c1c([H])c(N([H])c2nc(N([H])[H])nc(C([H])([H])Cl)n2)c([H])c([H])c1OC([H])([H])[H]


 21 22  0  0  0  0  0  0  0  0999 V2000
   52.5317   -4.8898   -7.0056 C   0  0  0  0  0  0  0  0  0  0  0  0
   53.2846   -4.4517   -8.0205 N   0  0  0  0  0  0  0  0  0  0  0  0
   53.0576   -3.3629   -8.7580 C   0  0  0  0  0  0  0  0  0  0  0  0
   53.9063   -2.9599   -9.8243 N   0  0  0  0  0  0  0  0  0  0  0  0
   51.9568   -2.6139   -8.4619 N   0  0  0  0  0  0  0  0  0  0  0  0
   51.1503   -2.9979   -7.4477 C   0  0  0  0  0  0  0  0  0  0  0  0
   51.4362   -4.0988   -6.7500 N   0  0  0  0  0  0  0  0  0  0  0  0
   54.8855   -3.3124   -9.8708 H   0  0  0  0  0  0  0  0  0  0  0  0
   53.5540   -2.3139  -10.5591 H   0  0  0  0  0  0  0  0  0  0  0  0
   52.7654   -6.0380   -6.2230 N   0  0  0  0  0  0  0  0  0  0  0  0
   51.9823   -6.7494   -6.2284 H   0  0  0  0  0  0  0  0  0  0  0  0
   56.0338   -6.6871   -3.6899 C   0  0  0  0  0  0  0  0  0  0  0  0
   56.0385   -7.2848   -4.9249 C   0  0  0  0  0  0  0  0  0  0  0  0
   54.9730   -7.0951   -5.8157 C   0  0  0  0  0  0  0  0  0  0  0  0
   53.9040   -6.3029   -5.4586 C   0  0  0  0  0  0  0  0  0  0  0  0
   53.9260   -5.6998   -4.1810 C   0  0  0  0  0  0  0  0  0  0  0  0
   54.9768   -5.8923   -3.3144 C   0  0  0  0  0  0  0  0  0  0  0  0
   58.3436   -7.2326   -3.3313 C   0  0  0  0  0  0  0  0  0  0  0  0
   57.0896   -6.8878   -2.8338 O   0  0  0  0  0  0  0  0  0  0  0  0
   49.9340   -2.2067   -7.0894 C   0  0  0  0  0  0  0  0  0  0  0  0
   49.1949   -2.8988   -5.6283 Cl  0  0  0  0  0  0  0  0  0  0  0  0
 18 19  1  0  0  0
 19 12  1  0  0  0
 12 13  2  0  0  0
 13 14  1  0  0  0
 14 15  2  0  0  0
 15 10  1  0  0  0
 10  1  1  0  0  0
  1  2  2  0  0  0
  2  3  1  0  0  0
  3  4  1  0  0  0
  3  5  2  0  0  0
  5  6  1  0  0  0
  6 20  1  0  0  0
 20 21  1  0  0  0
  6  7  2  0  0  0
 15 16  1  0  0  0
 16 17  2  0  0  0
 17 12  1  0  0  0
  7  1  1  0  0  0
 10 11  1  0  0  0
  4  8  1  0  0  0
  4  9  1  0  0  0
M  END
> <minimizedAffinity>
-6.69602

> <CNNscore>
0.6605409384

> <CNNaffinity>
5.8969540596

> <CNN_VS>
3.8951795101

> <CNNaffinity_variance>
0.1956381351

$$$$
[H]c1c([H])c(N([H])c2nc(N([H])[H])nc(C([H])([H])Cl)n2)c([H])c([H])c1OC([H])([H])[H]


 21 22  0  0  0  0  0  0  0  0999 V2000
   54.0426   -3.9629   -8.7950 C   0  0  0  0  0  0  0  0  0  0  0  0
   54.7247   -4.5998   -7.8369 N   0  0  0  0  0  0  0  0  0  0  0  0
   55.9860   -5.0282   -7.9187 C   0  0  0  0  0  0  0  0  0  0  0  0
   56.6456   -5.6998   -6.8542 N   0  0  0  0  0  0  0  0  0  0  0  0
   56.6583   -4.8030   -9.0840 N   0  0  0  0  0  0  0  0  0  0  0  0
   56.0302   -4.1642  -10.0959 C   0  0  0  0  0  0  0  0  0  0  0  0
   54.7666   -3.7621   -9.9469 N   0  0  0  0  0  0  0  0  0  0  0  0
   56.2863   -5.6093   -5.8806 H   0  0  0  0  0  0  0  0  0  0  0  0
   57.4865   -6.2819   -7.0428 H   0  0  0  0  0  0  0  0  0  0  0  0
   52.7114   -3.5080   -8.7154 N   0  0  0  0  0  0  0  0  0  0  0  0
   52.3627   -2.9948   -9.5723 H   0  0  0  0  0  0  0  0  0  0  0  0
   49.9447   -3.7381   -5.5829 C   0  0  0  0  0  0  0  0  0  0  0  0
   50.8930   -4.7241   -5.6876 C   0  0  0  0  0  0  0  0  0  0  0  0
   51.8482   -4.6921   -6.7130 C   0  0  0  0  0  0  0  0  0  0  0  0
   51.8447   -3.6654   -7.6315 C   0  0  0  0  0  0  0  0  0  0  0  0
   50.8570   -2.6637   -7.4992 C   0  0  0  0  0  0  0  0  0  0  0  0
   49.9243   -2.7044   -6.4889 C   0  0  0  0  0  0  0  0  0  0  0  0
   49.2117   -4.6402   -3.4828 C   0  0  0  0  0  0  0  0  0  0  0  0
   49.0187   -3.7909   -4.5691 O   0  0  0  0  0  0  0  0  0  0  0  0
   56.7293   -3.8970  -11.3895 C   0  0  0  0  0  0  0  0  0  0  0  0
   58.3049   -4.7203  -11.3844 Cl  0  0  0  0  0  0  0  0  0  0  0  0
 18 19  1  0  0  0
 19 12  1  0  0  0
 12 13  2  0  0  0
 13 14  1  0  0  0
 14 15  2  0  0  0
 15 10  1  0  0  0
 10  1  1  0  0  0
  1  2  2  0  0  0
  2  3  1  0  0  0
  3  4  1  0  0  0
  3  5  2  0  0  0
  5  6  1  0  0  0
  6 20  1  0  0  0
 20 21  1  0  0  0
  6  7  2  0  0  0
 15 16  1  0  0  0
 16 17  2  0  0  0
 17 12  1  0  0  0
  7  1  1  0  0  0
 10 11  1  0  0  0
  4  8  1  0  0  0
  4  9  1  0  0  0
M  END
> <minimizedAffinity>
-7.72145

> <CNNscore>
0.6271073222

> <CNNaffinity>
5.9073896408

> <CNN_VS>
3.7045671940

> <CNNaffinity_variance>
0.1757757366

$$$$
[H]c1nc2sc3c(=O)n(C4([H])C([H])([H])C([H])([H])C([H])([H])C([H])([H])C4([H])[H])c([H])nc3c2c(N(C([H])([H])[H])C([H])([H])[H])c1[H]


 23 26  0  0  0  0  0  0  0  0999 V2000
   54.6244   -4.4717   -7.7586 C   0  0  0  0  0  0  0  0  0  0  0  0
   53.3652   -3.9153   -7.8596 C   0  0  0  0  0  0  0  0  0  0  0  0
   52.8595   -3.3152   -8.9895 C   0  0  0  0  0  0  0  0  0  0  0  0
   53.6913   -3.2949  -10.0445 N   0  0  0  0  0  0  0  0  0  0  0  0
   54.9526   -3.8321   -9.9989 C   0  0  0  0  0  0  0  0  0  0  0  0
   56.2157   -3.9477  -11.1404 S   0  0  0  0  0  0  0  0  0  0  0  0
   57.3770   -4.7506  -10.1870 C   0  0  0  0  0  0  0  0  0  0  0  0
   58.6940   -5.2060  -10.3924 C   0  0  0  0  0  0  0  0  0  0  0  0
   59.1506   -4.9958  -11.5324 O   0  0  0  0  0  0  0  0  0  0  0  0
   59.3840   -5.8172   -9.4185 N   0  0  0  0  0  0  0  0  0  0  0  0
   58.7449   -5.9650   -8.2482 C   0  0  0  0  0  0  0  0  0  0  0  0
   57.5040   -5.5423   -8.0370 N   0  0  0  0  0  0  0  0  0  0  0  0
   56.7420   -4.9109   -8.9876 C   0  0  0  0  0  0  0  0  0  0  0  0
   55.4766   -4.4333   -8.8863 C   0  0  0  0  0  0  0  0  0  0  0  0
   60.7290   -6.2684   -9.6685 C   0  0  0  0  0  0  0  0  0  0  0  0
   61.6529   -5.9967   -8.5073 C   0  0  0  0  0  0  0  0  0  0  0  0
   63.0418   -6.3860   -8.9229 C   0  0  0  0  0  0  0  0  0  0  0  0
   63.1270   -7.0454  -10.2518 C   0  0  0  0  0  0  0  0  0  0  0  0
   62.0958   -8.0990  -10.5032 C   0  0  0  0  0  0  0  0  0  0  0  0
   60.7616   -7.7903   -9.8642 C   0  0  0  0  0  0  0  0  0  0  0  0
   55.7683   -4.4684   -5.4858 C   0  0  0  0  0  0  0  0  0  0  0  0
   54.9752   -5.0815   -6.5296 N   0  0  0  0  0  0  0  0  0  0  0  0
   54.4981   -6.4323   -6.3015 C   0  0  0  0  0  0  0  0  0  0  0  0
 21 22  1  0  0  0
 22 23  1  0  0  0
 22  1  1  0  0  0
  1  2  2  0  0  0
  2  3  1  0  0  0
  3  4  2  0  0  0
  4  5  1  0  0  0
  5  6  1  0  0  0
  6  7  1  0  0  0
  7  8  1  0  0  0
  8  9  2  0  0  0
  8 10  1  0  0  0
 10 15  1  0  0  0
 15 16  1  0  0  0
 16 17  1  0  0  0
 17 18  1  0  0  0
 18 19  1  0  0  0
 19 20  1  0  0  0
 10 11  1  0  0  0
 11 12  2  0  0  0
 12 13  1  0  0  0
 13 14  1  0  0  0
 14  1  1  0  0  0
 14  5  2  0  0  0
 13  7  2  0  0  0
 20 15  1  0  0  0
M  END
> <minimizedAffinity>
-6.47585

> <CNNscore>
0.6865398288

> <CNNaffinity>
6.1453218460

> <CNN_VS>
4.2190084457

> <CNNaffinity_variance>
0.1274982989

$$$$
[H]c1nc2sc3c(=O)n(C4([H])C([H])([H])C([H])([H])C([H])([H])C([H])([H])C4([H])[H])c([H])nc3c2c(N(C([H])([H])[H])C([H])([H])[H])c1[H]


 23 26  0  0  0  0  0  0  0  0999 V2000
   57.7201   -4.8718  -10.4732 C   0  0  0  0  0  0  0  0  0  0  0  0
   59.0319   -5.2501  -10.6769 C   0  0  0  0  0  0  0  0  0  0  0  0
   59.8525   -5.7906   -9.7141 C   0  0  0  0  0  0  0  0  0  0  0  0
   59.2885   -5.9408   -8.5039 N   0  0  0  0  0  0  0  0  0  0  0  0
   57.9902   -5.5811   -8.2462 C   0  0  0  0  0  0  0  0  0  0  0  0
   57.0180   -5.6369   -6.8448 S   0  0  0  0  0  0  0  0  0  0  0  0
   55.5813   -4.9763   -7.4788 C   0  0  0  0  0  0  0  0  0  0  0  0
   54.3059   -4.6797   -6.9598 C   0  0  0  0  0  0  0  0  0  0  0  0
   54.1510   -4.9589   -5.7555 O   0  0  0  0  0  0  0  0  0  0  0  0
   53.3469   -4.1377   -7.7245 N   0  0  0  0  0  0  0  0  0  0  0  0
   53.6780   -3.8989   -9.0025 C   0  0  0  0  0  0  0  0  0  0  0  0
   54.8749   -4.1723   -9.5086 N   0  0  0  0  0  0  0  0  0  0  0  0
   55.8999   -4.7265   -8.7841 C   0  0  0  0  0  0  0  0  0  0  0  0
   57.1559   -5.0415   -9.1878 C   0  0  0  0  0  0  0  0  0  0  0  0
   52.0552   -3.8491   -7.1559 C   0  0  0  0  0  0  0  0  0  0  0  0
   51.3105   -2.7878   -7.9271 C   0  0  0  0  0  0  0  0  0  0  0  0
   50.0462   -2.4771   -7.1797 C   0  0  0  0  0  0  0  0  0  0  0  0
   49.7895   -3.3548   -6.0084 C   0  0  0  0  0  0  0  0  0  0  0  0
   50.0150   -4.8136   -6.2487 C   0  0  0  0  0  0  0  0  0  0  0  0
   51.1540   -5.0906   -7.2023 C   0  0  0  0  0  0  0  0  0  0  0  0
   56.3101   -5.1616  -12.5714 C   0  0  0  0  0  0  0  0  0  0  0  0
   57.0044   -4.3629  -11.5841 N   0  0  0  0  0  0  0  0  0  0  0  0
   56.9661   -2.9214  -11.7423 C   0  0  0  0  0  0  0  0  0  0  0  0
 21 22  1  0  0  0
 22 23  1  0  0  0
 22  1  1  0  0  0
  1  2  2  0  0  0
  2  3  1  0  0  0
  3  4  2  0  0  0
  4  5  1  0  0  0
  5  6  1  0  0  0
  6  7  1  0  0  0
  7  8  1  0  0  0
  8  9  2  0  0  0
  8 10  1  0  0  0
 10 15  1  0  0  0
 15 16  1  0  0  0
 16 17  1  0  0  0
 17 18  1  0  0  0
 18 19  1  0  0  0
 19 20  1  0  0  0
 10 11  1  0  0  0
 11 12  2  0  0  0
 12 13  1  0  0  0
 13 14  1  0  0  0
 14  1  1  0  0  0
 14  5  2  0  0  0
 13  7  2  0  0  0
 20 15  1  0  0  0
M  END
> <minimizedAffinity>
-7.25824

> <CNNscore>
0.4729795456

> <CNNaffinity>
6.5795774460

> <CNN_VS>
3.1120054722

> <CNNaffinity_variance>
0.1345371455

$$$$
[H]c1nc2sc3c(=O)n(C4([H])C([H])([H])C([H])([H])C([H])([H])C([H])([H])C4([H])[H])c([H])nc3c2c(N(C([H])([H])[H])C([H])([H])[H])c1[H]


 23 26  0  0  0  0  0  0  0  0999 V2000
   50.3780   -4.6689   -4.5853 C   0  0  0  0  0  0  0  0  0  0  0  0
   49.1882   -4.4126   -3.9341 C   0  0  0  0  0  0  0  0  0  0  0  0
   48.2556   -3.4851   -4.3372 C   0  0  0  0  0  0  0  0  0  0  0  0
   48.5733   -2.8052   -5.4517 N   0  0  0  0  0  0  0  0  0  0  0  0
   49.7419   -3.0191   -6.1374 C   0  0  0  0  0  0  0  0  0  0  0  0
   50.4165   -2.3243   -7.5424 S   0  0  0  0  0  0  0  0  0  0  0  0
   51.8730   -3.2053   -7.6143 C   0  0  0  0  0  0  0  0  0  0  0  0
   52.9874   -3.2215   -8.4754 C   0  0  0  0  0  0  0  0  0  0  0  0
   52.9277   -2.4193   -9.4269 O   0  0  0  0  0  0  0  0  0  0  0  0
   54.0228   -4.0476   -8.2661 N   0  0  0  0  0  0  0  0  0  0  0  0
   53.9289   -4.8490   -7.1942 C   0  0  0  0  0  0  0  0  0  0  0  0
   52.8861   -4.8473   -6.3721 N   0  0  0  0  0  0  0  0  0  0  0  0
   51.7949   -4.0299   -6.5273 C   0  0  0  0  0  0  0  0  0  0  0  0
   50.6839   -3.9357   -5.7550 C   0  0  0  0  0  0  0  0  0  0  0  0
   55.1442   -4.0338   -9.1702 C   0  0  0  0  0  0  0  0  0  0  0  0
   56.2822   -4.8997   -8.6897 C   0  0  0  0  0  0  0  0  0  0  0  0
   57.4348   -4.7106   -9.6325 C   0  0  0  0  0  0  0  0  0  0  0  0
   57.1285   -3.8757  -10.8231 C   0  0  0  0  0  0  0  0  0  0  0  0
   55.8310   -4.1876  -11.4984 C   0  0  0  0  0  0  0  0  0  0  0  0
   54.7456   -4.6101  -10.5357 C   0  0  0  0  0  0  0  0  0  0  0  0
   51.4205   -6.9893   -4.6419 C   0  0  0  0  0  0  0  0  0  0  0  0
   51.2109   -5.6835   -4.0540 N   0  0  0  0  0  0  0  0  0  0  0  0
   51.9103   -5.3858   -2.8185 C   0  0  0  0  0  0  0  0  0  0  0  0
 21 22  1  0  0  0
 22 23  1  0  0  0
 22  1  1  0  0  0
  1  2  2  0  0  0
  2  3  1  0  0  0
  3  4  2  0  0  0
  4  5  1  0  0  0
  5  6  1  0  0  0
  6  7  1  0  0  0
  7  8  1  0  0  0
  8  9  2  0  0  0
  8 10  1  0  0  0
 10 15  1  0  0  0
 15 16  1  0  0  0
 16 17  1  0  0  0
 17 18  1  0  0  0
 18 19  1  0  0  0
 19 20  1  0  0  0
 10 11  1  0  0  0
 11 12  2  0  0  0
 12 13  1  0  0  0
 13 14  1  0  0  0
 14  1  1  0  0  0
 14  5  2  0  0  0
 13  7  2  0  0  0
 20 15  1  0  0  0
M  END
> <minimizedAffinity>
-7.59481

> <CNNscore>
0.4539345801

> <CNNaffinity>
6.7740859985

> <CNN_VS>
3.0749919415

> <CNNaffinity_variance>
0.3267582357

$$$$
[H]c1nc2sc3c(=O)n(C4([H])C([H])([H])C([H])([H])C([H])([H])C([H])([H])C4([H])[H])c([H])nc3c2c(N(C([H])([H])[H])C([H])([H])[H])c1[H]


 23 26  0  0  0  0  0  0  0  0999 V2000
   52.3961   -5.8397   -3.3735 C   0  0  0  0  0  0  0  0  0  0  0  0
   51.2731   -5.8129   -2.5713 C   0  0  0  0  0  0  0  0  0  0  0  0
   50.0229   -5.4121   -2.9825 C   0  0  0  0  0  0  0  0  0  0  0  0
   49.9420   -5.0282   -4.2676 N   0  0  0  0  0  0  0  0  0  0  0  0
   51.0258   -5.0344   -5.1082 C   0  0  0  0  0  0  0  0  0  0  0  0
   51.2371   -4.6045   -6.7461 S   0  0  0  0  0  0  0  0  0  0  0  0
   52.9018   -4.9302   -6.9046 C   0  0  0  0  0  0  0  0  0  0  0  0
   53.8430   -4.8295   -7.9477 C   0  0  0  0  0  0  0  0  0  0  0  0
   53.3856   -4.4132   -9.0293 O   0  0  0  0  0  0  0  0  0  0  0  0
   55.1290   -5.1626   -7.7657 N   0  0  0  0  0  0  0  0  0  0  0  0
   55.4573   -5.5936   -6.5383 C   0  0  0  0  0  0  0  0  0  0  0  0
   54.5835   -5.6951   -5.5437 N   0  0  0  0  0  0  0  0  0  0  0  0
   53.2550   -5.3722   -5.6607 C   0  0  0  0  0  0  0  0  0  0  0  0
   52.2783   -5.4284   -4.7212 C   0  0  0  0  0  0  0  0  0  0  0  0
   56.0607   -5.0454   -8.8581 C   0  0  0  0  0  0  0  0  0  0  0  0
   55.9707   -3.7084   -9.5509 C   0  0  0  0  0  0  0  0  0  0  0  0
   56.8848   -3.7439  -10.7412 C   0  0  0  0  0  0  0  0  0  0  0  0
   57.7164   -4.9711  -10.8450 C   0  0  0  0  0  0  0  0  0  0  0  0
   58.3583   -5.4110   -9.5678 C   0  0  0  0  0  0  0  0  0  0  0  0
   57.5057   -5.1414   -8.3496 C   0  0  0  0  0  0  0  0  0  0  0  0
   54.0575   -7.6868   -2.8234 C   0  0  0  0  0  0  0  0  0  0  0  0
   53.6007   -6.3137   -2.7994 N   0  0  0  0  0  0  0  0  0  0  0  0
   54.4441   -5.3394   -2.1332 C   0  0  0  0  0  0  0  0  0  0  0  0
 21 22  1  0  0  0
 22 23  1  0  0  0
 22  1  1  0  0  0
  1  2  2  0  0  0
  2  3  1  0  0  0
  3  4  2  0  0  0
  4  5  1  0  0  0
  5  6  1  0  0  0
  6  7  1  0  0  0
  7  8  1  0  0  0
  8  9  2  0  0  0
  8 10  1  0  0  0
 10 15  1  0  0  0
 15 16  1  0  0  0
 16 17  1  0  0  0
 17 18  1  0  0  0
 18 19  1  0  0  0
 19 20  1  0  0  0
 10 11  1  0  0  0
 11 12  2  0  0  0
 12 13  1  0  0  0
 13 14  1  0  0  0
 14  1  1  0  0  0
 14  5  2  0  0  0
 13  7  2  0  0  0
 20 15  1  0  0  0
M  END
> <minimizedAffinity>
-8.54980

> <CNNscore>
0.4263598025

> <CNNaffinity>
6.4717073441

> <CNN_VS>
2.7592759132

> <CNNaffinity_variance>
0.1891912073

$$$$
[H]c1nc2sc3c(=O)n(C4([H])C([H])([H])C([H])([H])C([H])([H])C([H])([H])C4([H])[H])c([H])nc3c2c(N(C([H])([H])[H])C([H])([H])[H])c1[H]


 23 26  0  0  0  0  0  0  0  0999 V2000
   55.0014   -4.7423   -7.5705 C   0  0  0  0  0  0  0  0  0  0  0  0
   55.1072   -5.1366   -6.2519 C   0  0  0  0  0  0  0  0  0  0  0  0
   56.2482   -5.6401   -5.6713 C   0  0  0  0  0  0  0  0  0  0  0  0
   57.3094   -5.7352   -6.4899 N   0  0  0  0  0  0  0  0  0  0  0  0
   57.2595   -5.3588   -7.8079 C   0  0  0  0  0  0  0  0  0  0  0  0
   58.4069   -5.3700   -9.0709 S   0  0  0  0  0  0  0  0  0  0  0  0
   57.4420   -4.7413  -10.3264 C   0  0  0  0  0  0  0  0  0  0  0  0
   57.6454   -4.4464  -11.6886 C   0  0  0  0  0  0  0  0  0  0  0  0
   58.7937   -4.6815  -12.1111 O   0  0  0  0  0  0  0  0  0  0  0  0
   56.6614   -3.9505  -12.4527 N   0  0  0  0  0  0  0  0  0  0  0  0
   55.4831   -3.7556  -11.8416 C   0  0  0  0  0  0  0  0  0  0  0  0
   55.2736   -4.0277  -10.5589 N   0  0  0  0  0  0  0  0  0  0  0  0
   56.2343   -4.5354   -9.7210 C   0  0  0  0  0  0  0  0  0  0  0  0
   56.1359   -4.8560   -8.4067 C   0  0  0  0  0  0  0  0  0  0  0  0
   56.9097   -3.6620  -13.8421 C   0  0  0  0  0  0  0  0  0  0  0  0
   58.3824   -3.5864  -14.1604 C   0  0  0  0  0  0  0  0  0  0  0  0
   58.5227   -3.1573  -15.5921 C   0  0  0  0  0  0  0  0  0  0  0  0
   57.2406   -3.0646  -16.3377 C   0  0  0  0  0  0  0  0  0  0  0  0
   56.3044   -4.2127  -16.1325 C   0  0  0  0  0  0  0  0  0  0  0  0
   56.3597   -4.7832  -14.7343 C   0  0  0  0  0  0  0  0  0  0  0  0
   53.5368   -2.8533   -8.4428 C   0  0  0  0  0  0  0  0  0  0  0  0
   53.7599   -4.2126   -7.9989 N   0  0  0  0  0  0  0  0  0  0  0  0
   52.6198   -5.1095   -7.9908 C   0  0  0  0  0  0  0  0  0  0  0  0
 21 22  1  0  0  0
 22 23  1  0  0  0
 22  1  1  0  0  0
  1  2  2  0  0  0
  2  3  1  0  0  0
  3  4  2  0  0  0
  4  5  1  0  0  0
  5  6  1  0  0  0
  6  7  1  0  0  0
  7  8  1  0  0  0
  8  9  2  0  0  0
  8 10  1  0  0  0
 10 15  1  0  0  0
 15 16  1  0  0  0
 16 17  1  0  0  0
 17 18  1  0  0  0
 18 19  1  0  0  0
 19 20  1  0  0  0
 10 11  1  0  0  0
 11 12  2  0  0  0
 12 13  1  0  0  0
 13 14  1  0  0  0
 14  1  1  0  0  0
 14  5  2  0  0  0
 13  7  2  0  0  0
 20 15  1  0  0  0
M  END
> <minimizedAffinity>
-7.01143

> <CNNscore>
0.4255531430

> <CNNaffinity>
5.9053821564

> <CNN_VS>
2.5130538940

> <CNNaffinity_variance>
0.2558721900

$$$$
[H]c1nc2sc3c(=O)n(C4([H])C([H])([H])C([H])([H])C([H])([H])C([H])([H])C4([H])[H])c([H])nc3c2c(N(C([H])([H])[H])C([H])([H])[H])c1[H]


 23 26  0  0  0  0  0  0  0  0999 V2000
   55.9917   -6.3316   -5.7695 C   0  0  0  0  0  0  0  0  0  0  0  0
   56.3069   -6.8616   -4.5345 C   0  0  0  0  0  0  0  0  0  0  0  0
   57.5690   -7.2430   -4.1419 C   0  0  0  0  0  0  0  0  0  0  0  0
   58.5301   -7.0665   -5.0641 N   0  0  0  0  0  0  0  0  0  0  0  0
   58.2725   -6.5450   -6.3064 C   0  0  0  0  0  0  0  0  0  0  0  0
   59.2542   -6.2183   -7.6634 S   0  0  0  0  0  0  0  0  0  0  0  0
   58.0682   -5.6038   -8.7208 C   0  0  0  0  0  0  0  0  0  0  0  0
   58.0662   -5.1163  -10.0423 C   0  0  0  0  0  0  0  0  0  0  0  0
   59.1795   -5.1112  -10.6019 O   0  0  0  0  0  0  0  0  0  0  0  0
   56.9381   -4.6949  -10.6320 N   0  0  0  0  0  0  0  0  0  0  0  0
   55.8233   -4.7671   -9.8892 C   0  0  0  0  0  0  0  0  0  0  0  0
   55.8067   -5.2235   -8.6423 N   0  0  0  0  0  0  0  0  0  0  0  0
   56.9222   -5.6693   -7.9793 C   0  0  0  0  0  0  0  0  0  0  0  0
   57.0255   -6.1593   -6.7187 C   0  0  0  0  0  0  0  0  0  0  0  0
   56.9780   -4.2031  -11.9854 C   0  0  0  0  0  0  0  0  0  0  0  0
   58.3856   -3.9466  -12.4638 C   0  0  0  0  0  0  0  0  0  0  0  0
   58.3023   -3.3207  -13.8258 C   0  0  0  0  0  0  0  0  0  0  0  0
   56.9299   -3.2526  -14.3914 C   0  0  0  0  0  0  0  0  0  0  0  0
   56.1206   -4.5013  -14.2419 C   0  0  0  0  0  0  0  0  0  0  0  0
   56.4037   -5.2437  -12.9565 C   0  0  0  0  0  0  0  0  0  0  0  0
   53.6403   -6.7909   -6.6262 C   0  0  0  0  0  0  0  0  0  0  0  0
   54.6449   -5.9591   -5.9988 N   0  0  0  0  0  0  0  0  0  0  0  0
   54.2424   -4.6338   -5.5677 C   0  0  0  0  0  0  0  0  0  0  0  0
 21 22  1  0  0  0
 22 23  1  0  0  0
 22  1  1  0  0  0
  1  2  2  0  0  0
  2  3  1  0  0  0
  3  4  2  0  0  0
  4  5  1  0  0  0
  5  6  1  0  0  0
  6  7  1  0  0  0
  7  8  1  0  0  0
  8  9  2  0  0  0
  8 10  1  0  0  0
 10 15  1  0  0  0
 15 16  1  0  0  0
 16 17  1  0  0  0
 17 18  1  0  0  0
 18 19  1  0  0  0
 19 20  1  0  0  0
 10 11  1  0  0  0
 11 12  2  0  0  0
 12 13  1  0  0  0
 13 14  1  0  0  0
 14  1  1  0  0  0
 14  5  2  0  0  0
 13  7  2  0  0  0
 20 15  1  0  0  0
M  END
> <minimizedAffinity>
1.37790

> <CNNscore>
0.4247134030

> <CNNaffinity>
5.5864472389

> <CNN_VS>
2.3726389408

> <CNNaffinity_variance>
0.2439944297

$$$$
[H]c1nc2sc3c(=O)n(C4([H])C([H])([H])C([H])([H])C([H])([H])C([H])([H])C4([H])[H])c([H])nc3c2c(N(C([H])([H])[H])C([H])([H])[H])c1[H]


 23 26  0  0  0  0  0  0  0  0999 V2000
   54.8050   -4.0615   -7.7960 C   0  0  0  0  0  0  0  0  0  0  0  0
   54.8374   -3.4331   -9.0246 C   0  0  0  0  0  0  0  0  0  0  0  0
   53.7288   -3.1180   -9.7757 C   0  0  0  0  0  0  0  0  0  0  0  0
   52.5523   -3.4684   -9.2294 N   0  0  0  0  0  0  0  0  0  0  0  0
   52.4624   -4.0952   -8.0126 C   0  0  0  0  0  0  0  0  0  0  0  0
   51.1476   -4.6617   -7.0840 S   0  0  0  0  0  0  0  0  0  0  0  0
   52.0020   -5.2954   -5.7533 C   0  0  0  0  0  0  0  0  0  0  0  0
   51.6441   -5.9463   -4.5565 C   0  0  0  0  0  0  0  0  0  0  0  0
   50.4198   -6.1095   -4.3933 O   0  0  0  0  0  0  0  0  0  0  0  0
   52.5700   -6.3504   -3.6747 N   0  0  0  0  0  0  0  0  0  0  0  0
   53.8459   -6.0971   -4.0033 C   0  0  0  0  0  0  0  0  0  0  0  0
   54.2013   -5.4847   -5.1266 N   0  0  0  0  0  0  0  0  0  0  0  0
   53.3075   -5.0454   -6.0706 C   0  0  0  0  0  0  0  0  0  0  0  0
   53.5511   -4.4187   -7.2485 C   0  0  0  0  0  0  0  0  0  0  0  0
   52.1631   -7.0127   -2.4619 C   0  0  0  0  0  0  0  0  0  0  0  0
   52.2323   -8.5154   -2.5752 C   0  0  0  0  0  0  0  0  0  0  0  0
   51.6690   -9.0990   -1.3120 C   0  0  0  0  0  0  0  0  0  0  0  0
   51.3402   -8.0994   -0.2627 C   0  0  0  0  0  0  0  0  0  0  0  0
   52.3817   -7.0495   -0.0398 C   0  0  0  0  0  0  0  0  0  0  0  0
   53.1046   -6.6501   -1.3053 C   0  0  0  0  0  0  0  0  0  0  0  0
   56.8904   -5.4389   -7.3186 C   0  0  0  0  0  0  0  0  0  0  0  0
   56.0401   -4.2815   -7.1392 N   0  0  0  0  0  0  0  0  0  0  0  0
   56.4868   -3.2603   -6.2108 C   0  0  0  0  0  0  0  0  0  0  0  0
 21 22  1  0  0  0
 22 23  1  0  0  0
 22  1  1  0  0  0
  1  2  2  0  0  0
  2  3  1  0  0  0
  3  4  2  0  0  0
  4  5  1  0  0  0
  5  6  1  0  0  0
  6  7  1  0  0  0
  7  8  1  0  0  0
  8  9  2  0  0  0
  8 10  1  0  0  0
 10 15  1  0  0  0
 15 16  1  0  0  0
 16 17  1  0  0  0
 17 18  1  0  0  0
 18 19  1  0  0  0
 19 20  1  0  0  0
 10 11  1  0  0  0
 11 12  2  0  0  0
 12 13  1  0  0  0
 13 14  1  0  0  0
 14  1  1  0  0  0
 14  5  2  0  0  0
 13  7  2  0  0  0
 20 15  1  0  0  0
M  END
> <minimizedAffinity>
-5.96293

> <CNNscore>
0.4111432135

> <CNNaffinity>
6.5310201645

> <CNN_VS>
2.6851847172

> <CNNaffinity_variance>
0.2601030767

$$$$
[H]c1nc2sc3c(=O)n(C4([H])C([H])([H])C([H])([H])C([H])([H])C([H])([H])C4([H])[H])c([H])nc3c2c(N(C([H])([H])[H])C([H])([H])[H])c1[H]


 23 26  0  0  0  0  0  0  0  0999 V2000
   55.3439   -5.2250   -7.4167 C   0  0  0  0  0  0  0  0  0  0  0  0
   56.4102   -5.1768   -8.2919 C   0  0  0  0  0  0  0  0  0  0  0  0
   56.4187   -4.4889   -9.4832 C   0  0  0  0  0  0  0  0  0  0  0  0
   55.2820   -3.8323   -9.7698 N   0  0  0  0  0  0  0  0  0  0  0  0
   54.1924   -3.8469   -8.9368 C   0  0  0  0  0  0  0  0  0  0  0  0
   52.6421   -3.1396   -9.0276 S   0  0  0  0  0  0  0  0  0  0  0  0
   51.9892   -3.7163   -7.5635 C   0  0  0  0  0  0  0  0  0  0  0  0
   50.7516   -3.5863   -6.9036 C   0  0  0  0  0  0  0  0  0  0  0  0
   49.9108   -2.8845   -7.4976 O   0  0  0  0  0  0  0  0  0  0  0  0
   50.5199   -4.1827   -5.7252 N   0  0  0  0  0  0  0  0  0  0  0  0
   51.5329   -4.9036   -5.2211 C   0  0  0  0  0  0  0  0  0  0  0  0
   52.7058   -5.0367   -5.8291 N   0  0  0  0  0  0  0  0  0  0  0  0
   53.0099   -4.4546   -7.0338 C   0  0  0  0  0  0  0  0  0  0  0  0
   54.1611   -4.5243   -7.7477 C   0  0  0  0  0  0  0  0  0  0  0  0
   49.2405   -4.0252   -5.0821 C   0  0  0  0  0  0  0  0  0  0  0  0
   49.2181   -4.6120   -3.6925 C   0  0  0  0  0  0  0  0  0  0  0  0
   47.8142   -4.5083   -3.1713 C   0  0  0  0  0  0  0  0  0  0  0  0
   46.8821   -3.7576   -4.0521 C   0  0  0  0  0  0  0  0  0  0  0  0
   47.4251   -2.4784   -4.6049 C   0  0  0  0  0  0  0  0  0  0  0  0
   48.9061   -2.5385   -4.8992 C   0  0  0  0  0  0  0  0  0  0  0  0
   55.1921   -7.3520   -6.0285 C   0  0  0  0  0  0  0  0  0  0  0  0
   55.5148   -5.9535   -6.2144 N   0  0  0  0  0  0  0  0  0  0  0  0
   56.0587   -5.2354   -5.0774 C   0  0  0  0  0  0  0  0  0  0  0  0
 21 22  1  0  0  0
 22 23  1  0  0  0
 22  1  1  0  0  0
  1  2  2  0  0  0
  2  3  1  0  0  0
  3  4  2  0  0  0
  4  5  1  0  0  0
  5  6  1  0  0  0
  6  7  1  0  0  0
  7  8  1  0  0  0
  8  9  2  0  0  0
  8 10  1  0  0  0
 10 15  1  0  0  0
 15 16  1  0  0  0
 16 17  1  0  0  0
 17 18  1  0  0  0
 18 19  1  0  0  0
 19 20  1  0  0  0
 10 11  1  0  0  0
 11 12  2  0  0  0
 12 13  1  0  0  0
 13 14  1  0  0  0
 14  1  1  0  0  0
 14  5  2  0  0  0
 13  7  2  0  0  0
 20 15  1  0  0  0
M  END
> <minimizedAffinity>
-7.57853

> <CNNscore>
0.3581147790

> <CNNaffinity>
6.6343750954

> <CNN_VS>
2.3758678436

> <CNNaffinity_variance>
0.3080735207

$$$$
[H]c1nc2sc3c(=O)n(C4([H])C([H])([H])C([H])([H])C([H])([H])C([H])([H])C4([H])[H])c([H])nc3c2c(N(C([H])([H])[H])C([H])([H])[H])c1[H]


 23 26  0  0  0  0  0  0  0  0999 V2000
   57.8940   -5.0646  -10.2399 C   0  0  0  0  0  0  0  0  0  0  0  0
   58.1418   -4.6641  -11.5374 C   0  0  0  0  0  0  0  0  0  0  0  0
   57.2521   -3.9787  -12.3318 C   0  0  0  0  0  0  0  0  0  0  0  0
   56.0697   -3.7031  -11.7562 N   0  0  0  0  0  0  0  0  0  0  0  0
   55.7706   -4.0780  -10.4711 C   0  0  0  0  0  0  0  0  0  0  0  0
   54.3872   -3.8882   -9.4901 S   0  0  0  0  0  0  0  0  0  0  0  0
   54.9363   -4.6760   -8.0829 C   0  0  0  0  0  0  0  0  0  0  0  0
   54.3855   -4.9555   -6.8170 C   0  0  0  0  0  0  0  0  0  0  0  0
   53.2246   -4.5369   -6.6452 O   0  0  0  0  0  0  0  0  0  0  0  0
   55.0785   -5.6234   -5.8833 N   0  0  0  0  0  0  0  0  0  0  0  0
   56.3174   -6.0041   -6.2299 C   0  0  0  0  0  0  0  0  0  0  0  0
   56.8525   -5.7492   -7.4182 N   0  0  0  0  0  0  0  0  0  0  0  0
   56.2008   -5.0715   -8.4176 C   0  0  0  0  0  0  0  0  0  0  0  0
   56.6394   -4.7604   -9.6629 C   0  0  0  0  0  0  0  0  0  0  0  0
   54.4796   -5.8894   -4.6005 C   0  0  0  0  0  0  0  0  0  0  0  0
   54.5682   -7.3449   -4.2141 C   0  0  0  0  0  0  0  0  0  0  0  0
   53.8066   -7.5288   -2.9336 C   0  0  0  0  0  0  0  0  0  0  0  0
   53.3095   -6.2680   -2.3240 C   0  0  0  0  0  0  0  0  0  0  0  0
   54.2993   -5.1473   -2.2912 C   0  0  0  0  0  0  0  0  0  0  0  0
   55.2188   -5.1301   -3.4902 C   0  0  0  0  0  0  0  0  0  0  0  0
   59.5930   -5.2502   -8.3549 C   0  0  0  0  0  0  0  0  0  0  0  0
   58.9345   -5.7329   -9.5499 N   0  0  0  0  0  0  0  0  0  0  0  0
   59.3739   -7.0063  -10.0882 C   0  0  0  0  0  0  0  0  0  0  0  0
 21 22  1  0  0  0
 22 23  1  0  0  0
 22  1  1  0  0  0
  1  2  2  0  0  0
  2  3  1  0  0  0
  3  4  2  0  0  0
  4  5  1  0  0  0
  5  6  1  0  0  0
  6  7  1  0  0  0
  7  8  1  0  0  0
  8  9  2  0  0  0
  8 10  1  0  0  0
 10 15  1  0  0  0
 15 16  1  0  0  0
 16 17  1  0  0  0
 17 18  1  0  0  0
 18 19  1  0  0  0
 19 20  1  0  0  0
 10 11  1  0  0  0
 11 12  2  0  0  0
 12 13  1  0  0  0
 13 14  1  0  0  0
 14  1  1  0  0  0
 14  5  2  0  0  0
 13  7  2  0  0  0
 20 15  1  0  0  0
M  END
> <minimizedAffinity>
-5.80225

> <CNNscore>
0.3367306590

> <CNNaffinity>
6.0956716537

> <CNN_VS>
2.0525994301

> <CNNaffinity_variance>
0.1607750207

$$$$
[H]c1c([H])c(-c2c(C([H])([H])C([H])([H])[H])c(C3=NC4(C(=O)N3[H])C([H])([H])C([H])([H])C4([H])[H])nn2-c2c([H])c([H])c(Cl)c([H])c2Cl)c([H])c([H])c1Cl


 32 36  0  0  0  0  0  0  0  0999 V2000
   63.4457   -8.2161   -9.9213 C   0  0  0  0  0  0  0  0  0  0  0  0
   63.4748   -9.5066   -9.4875 C   0  0  0  0  0  0  0  0  0  0  0  0
   63.8401  -10.2102  -10.6060 N   0  0  0  0  0  0  0  0  0  0  0  0
   64.0265   -9.4188  -11.6460 N   0  0  0  0  0  0  0  0  0  0  0  0
   63.8007   -8.1601  -11.2849 C   0  0  0  0  0  0  0  0  0  0  0  0
   63.2562  -10.1372   -8.1967 C   0  0  0  0  0  0  0  0  0  0  0  0
   62.2840   -9.7216   -7.3844 N   0  0  0  0  0  0  0  0  0  0  0  0
   62.2398  -10.4647   -6.1809 C   0  0  0  0  0  0  0  0  0  0  0  0
   60.8949  -11.0350   -5.7906 C   0  0  0  0  0  0  0  0  0  0  0  0
   60.7863   -9.9771   -4.7336 C   0  0  0  0  0  0  0  0  0  0  0  0
   62.2581   -9.6785   -4.8930 C   0  0  0  0  0  0  0  0  0  0  0  0
   63.2886  -11.4904   -6.2867 C   0  0  0  0  0  0  0  0  0  0  0  0
   63.6220  -12.4017   -5.4976 O   0  0  0  0  0  0  0  0  0  0  0  0
   63.9001  -11.2132   -7.5782 N   0  0  0  0  0  0  0  0  0  0  0  0
   64.6963  -11.7980   -7.9066 H   0  0  0  0  0  0  0  0  0  0  0  0
   64.4210   -9.8795  -12.9391 C   0  0  0  0  0  0  0  0  0  0  0  0
   64.0148   -9.2759  -14.1262 C   0  0  0  0  0  0  0  0  0  0  0  0
   64.3950   -9.7667  -15.3491 C   0  0  0  0  0  0  0  0  0  0  0  0
   65.1919  -10.8743  -15.4345 C   0  0  0  0  0  0  0  0  0  0  0  0
   65.7151  -11.5534  -16.9630 Cl  0  0  0  0  0  0  0  0  0  0  0  0
   65.6108  -11.4956  -14.2853 C   0  0  0  0  0  0  0  0  0  0  0  0
   65.2165  -10.9870  -13.0359 C   0  0  0  0  0  0  0  0  0  0  0  0
   65.7550  -11.8598  -11.6028 Cl  0  0  0  0  0  0  0  0  0  0  0  0
   64.0426   -6.9367  -12.0227 C   0  0  0  0  0  0  0  0  0  0  0  0
   63.0337   -6.3083  -12.7022 C   0  0  0  0  0  0  0  0  0  0  0  0
   63.2876   -5.2072  -13.5100 C   0  0  0  0  0  0  0  0  0  0  0  0
   64.5543   -4.6937  -13.6681 C   0  0  0  0  0  0  0  0  0  0  0  0
   64.8906   -3.3057  -14.6817 Cl  0  0  0  0  0  0  0  0  0  0  0  0
   65.5795   -5.3177  -12.9893 C   0  0  0  0  0  0  0  0  0  0  0  0
   65.3108   -6.4127  -12.1910 C   0  0  0  0  0  0  0  0  0  0  0  0
   61.4720   -6.8313   -9.4112 C   0  0  0  0  0  0  0  0  0  0  0  0
   62.9720   -7.0779   -9.0683 C   0  0  0  0  0  0  0  0  0  0  0  0
 31 32  1  0  0  0
 32  1  1  0  0  0
  1  2  1  0  0  0
  2  6  1  0  0  0
  6  7  2  0  0  0
  7  8  1  0  0  0
  8  9  1  0  0  0
  9 10  1  0  0  0
 10 11  1  0  0  0
  8 12  1  0  0  0
 12 13  2  0  0  0
 12 14  1  0  0  0
  2  3  2  0  0  0
  3  4  1  0  0  0
  4 16  1  0  0  0
 16 17  2  0  0  0
 17 18  1  0  0  0
 18 19  2  0  0  0
 19 20  1  0  0  0
 19 21  1  0  0  0
 21 22  2  0  0  0
 22 23  1  0  0  0
  4  5  1  0  0  0
  5 24  1  0  0  0
 24 25  2  0  0  0
 25 26  1  0  0  0
 26 27  2  0  0  0
 27 28  1  0  0  0
 27 29  1  0  0  0
 29 30  2  0  0  0
  5  1  2  0  0  0
 30 24  1  0  0  0
 14  6  1  0  0  0
 22 16  1  0  0  0
 11  8  1  0  0  0
 14 15  1  0  0  0
M  END
> <minimizedAffinity>
-2.47420

> <CNNscore>
0.4474848211

> <CNNaffinity>
5.6898918152

> <CNN_VS>
2.5461401939

> <CNNaffinity_variance>
0.4088062644

$$$$
[H]c1c([H])c(-c2c(C([H])([H])C([H])([H])[H])c(C3=NC4(C(=O)N3[H])C([H])([H])C([H])([H])C4([H])[H])nn2-c2c([H])c([H])c(Cl)c([H])c2Cl)c([H])c([H])c1Cl


 32 36  0  0  0  0  0  0  0  0999 V2000
   55.2820   -5.0616   -7.9701 C   0  0  0  0  0  0  0  0  0  0  0  0
   54.8497   -4.4140   -9.0874 C   0  0  0  0  0  0  0  0  0  0  0  0
   53.5899   -3.9954   -8.7452 N   0  0  0  0  0  0  0  0  0  0  0  0
   53.2706   -4.3509   -7.5147 N   0  0  0  0  0  0  0  0  0  0  0  0
   54.2855   -5.0163   -6.9734 C   0  0  0  0  0  0  0  0  0  0  0  0
   55.4596   -4.1094  -10.3707 C   0  0  0  0  0  0  0  0  0  0  0  0
   56.7722   -4.2487  -10.5584 N   0  0  0  0  0  0  0  0  0  0  0  0
   57.1633   -3.9014  -11.8734 C   0  0  0  0  0  0  0  0  0  0  0  0
   58.0068   -4.9138  -12.6147 C   0  0  0  0  0  0  0  0  0  0  0  0
   59.2005   -4.0322  -12.4001 C   0  0  0  0  0  0  0  0  0  0  0  0
   58.2825   -2.8985  -12.0094 C   0  0  0  0  0  0  0  0  0  0  0  0
   55.9312   -3.5446  -12.5931 C   0  0  0  0  0  0  0  0  0  0  0  0
   55.7507   -3.1994  -13.7816 O   0  0  0  0  0  0  0  0  0  0  0  0
   54.8973   -3.6831  -11.5778 N   0  0  0  0  0  0  0  0  0  0  0  0
   53.9065   -3.4759  -11.8209 H   0  0  0  0  0  0  0  0  0  0  0  0
   52.0232   -4.0402   -6.8922 C   0  0  0  0  0  0  0  0  0  0  0  0
   51.4508   -4.8177   -5.8890 C   0  0  0  0  0  0  0  0  0  0  0  0
   50.2371   -4.4984   -5.3361 C   0  0  0  0  0  0  0  0  0  0  0  0
   49.5502   -3.3954   -5.7611 C   0  0  0  0  0  0  0  0  0  0  0  0
   47.9964   -2.9293   -5.0980 Cl  0  0  0  0  0  0  0  0  0  0  0  0
   50.0835   -2.6063   -6.7485 C   0  0  0  0  0  0  0  0  0  0  0  0
   51.3274   -2.9404   -7.3105 C   0  0  0  0  0  0  0  0  0  0  0  0
   51.9321   -1.9077   -8.6043 Cl  0  0  0  0  0  0  0  0  0  0  0  0
   54.4717   -5.4498   -5.6034 C   0  0  0  0  0  0  0  0  0  0  0  0
   55.2688   -4.7466   -4.7403 C   0  0  0  0  0  0  0  0  0  0  0  0
   55.5478   -5.2258   -3.4667 C   0  0  0  0  0  0  0  0  0  0  0  0
   55.0422   -6.4207   -3.0088 C   0  0  0  0  0  0  0  0  0  0  0  0
   55.3836   -7.0378   -1.4057 Cl  0  0  0  0  0  0  0  0  0  0  0  0
   54.2382   -7.1388   -3.8685 C   0  0  0  0  0  0  0  0  0  0  0  0
   53.9714   -6.6493   -5.1324 C   0  0  0  0  0  0  0  0  0  0  0  0
   57.7045   -4.7650   -7.6285 C   0  0  0  0  0  0  0  0  0  0  0  0
   56.5810   -5.8076   -7.9094 C   0  0  0  0  0  0  0  0  0  0  0  0
 31 32  1  0  0  0
 32  1  1  0  0  0
  1  2  1  0  0  0
  2  6  1  0  0  0
  6  7  2  0  0  0
  7  8  1  0  0  0
  8  9  1  0  0  0
  9 10  1  0  0  0
 10 11  1  0  0  0
  8 12  1  0  0  0
 12 13  2  0  0  0
 12 14  1  0  0  0
  2  3  2  0  0  0
  3  4  1  0  0  0
  4 16  1  0  0  0
 16 17  2  0  0  0
 17 18  1  0  0  0
 18 19  2  0  0  0
 19 20  1  0  0  0
 19 21  1  0  0  0
 21 22  2  0  0  0
 22 23  1  0  0  0
  4  5  1  0  0  0
  5 24  1  0  0  0
 24 25  2  0  0  0
 25 26  1  0  0  0
 26 27  2  0  0  0
 27 28  1  0  0  0
 27 29  1  0  0  0
 29 30  2  0  0  0
  5  1  2  0  0  0
 30 24  1  0  0  0
 14  6  1  0  0  0
 22 16  1  0  0  0
 11  8  1  0  0  0
 14 15  1  0  0  0
M  END
> <minimizedAffinity>
-7.42136

> <CNNscore>
0.4296936393

> <CNNaffinity>
7.5517530441

> <CNN_VS>
3.2449402809

> <CNNaffinity_variance>
0.2630895972

$$$$
[H]c1c([H])c(-c2c(C([H])([H])C([H])([H])[H])c(C3=NC4(C(=O)N3[H])C([H])([H])C([H])([H])C4([H])[H])nn2-c2c([H])c([H])c(Cl)c([H])c2Cl)c([H])c([H])c1Cl


 32 36  0  0  0  0  0  0  0  0999 V2000
   59.1014   -6.6440   -7.5177 C   0  0  0  0  0  0  0  0  0  0  0  0
   60.2419   -6.5067   -8.2492 C   0  0  0  0  0  0  0  0  0  0  0  0
   59.8045   -5.9354   -9.4163 N   0  0  0  0  0  0  0  0  0  0  0  0
   58.5003   -5.7315   -9.4056 N   0  0  0  0  0  0  0  0  0  0  0  0
   58.0010   -6.1480   -8.2468 C   0  0  0  0  0  0  0  0  0  0  0  0
   61.6428   -6.7901   -7.9876 C   0  0  0  0  0  0  0  0  0  0  0  0
   62.2342   -6.3617   -6.8720 N   0  0  0  0  0  0  0  0  0  0  0  0
   63.5960   -6.7418   -6.8099 C   0  0  0  0  0  0  0  0  0  0  0  0
   64.0460   -7.4293   -5.5407 C   0  0  0  0  0  0  0  0  0  0  0  0
   64.7413   -6.1637   -5.1369 C   0  0  0  0  0  0  0  0  0  0  0  0
   64.5987   -5.6450   -6.5480 C   0  0  0  0  0  0  0  0  0  0  0  0
   63.8611   -7.5376   -8.0181 C   0  0  0  0  0  0  0  0  0  0  0  0
   64.9007   -8.1175   -8.4020 O   0  0  0  0  0  0  0  0  0  0  0  0
   62.5876   -7.5127   -8.7227 N   0  0  0  0  0  0  0  0  0  0  0  0
   62.4958   -8.0019   -9.6370 H   0  0  0  0  0  0  0  0  0  0  0  0
   57.7758   -5.1415  -10.4859 C   0  0  0  0  0  0  0  0  0  0  0  0
   56.6871   -5.7509  -11.1040 C   0  0  0  0  0  0  0  0  0  0  0  0
   56.0354   -5.1615  -12.1569 C   0  0  0  0  0  0  0  0  0  0  0  0
   56.4431   -3.9461  -12.6320 C   0  0  0  0  0  0  0  0  0  0  0  0
   55.6560   -3.1367  -13.9724 Cl  0  0  0  0  0  0  0  0  0  0  0  0
   57.5129   -3.3165  -12.0478 C   0  0  0  0  0  0  0  0  0  0  0  0
   58.1759   -3.9271  -10.9696 C   0  0  0  0  0  0  0  0  0  0  0  0
   59.5683   -3.0829  -10.2957 Cl  0  0  0  0  0  0  0  0  0  0  0  0
   56.6671   -5.9759   -7.7078 C   0  0  0  0  0  0  0  0  0  0  0  0
   56.2710   -4.7827   -7.1654 C   0  0  0  0  0  0  0  0  0  0  0  0
   55.0389   -4.6519   -6.5375 C   0  0  0  0  0  0  0  0  0  0  0  0
   54.1590   -5.7041   -6.4289 C   0  0  0  0  0  0  0  0  0  0  0  0
   52.6017   -5.5550   -5.6415 Cl  0  0  0  0  0  0  0  0  0  0  0  0
   54.5460   -6.9114   -6.9709 C   0  0  0  0  0  0  0  0  0  0  0  0
   55.7752   -7.0256   -7.5908 C   0  0  0  0  0  0  0  0  0  0  0  0
   60.0304   -8.5616   -6.2794 C   0  0  0  0  0  0  0  0  0  0  0  0
   59.0598   -7.3455   -6.1934 C   0  0  0  0  0  0  0  0  0  0  0  0
 31 32  1  0  0  0
 32  1  1  0  0  0
  1  2  1  0  0  0
  2  6  1  0  0  0
  6  7  2  0  0  0
  7  8  1  0  0  0
  8  9  1  0  0  0
  9 10  1  0  0  0
 10 11  1  0  0  0
  8 12  1  0  0  0
 12 13  2  0  0  0
 12 14  1  0  0  0
  2  3  2  0  0  0
  3  4  1  0  0  0
  4 16  1  0  0  0
 16 17  2  0  0  0
 17 18  1  0  0  0
 18 19  2  0  0  0
 19 20  1  0  0  0
 19 21  1  0  0  0
 21 22  2  0  0  0
 22 23  1  0  0  0
  4  5  1  0  0  0
  5 24  1  0  0  0
 24 25  2  0  0  0
 25 26  1  0  0  0
 26 27  2  0  0  0
 27 28  1  0  0  0
 27 29  1  0  0  0
 29 30  2  0  0  0
  5  1  2  0  0  0
 30 24  1  0  0  0
 14  6  1  0  0  0
 22 16  1  0  0  0
 11  8  1  0  0  0
 14 15  1  0  0  0
M  END
> <minimizedAffinity>
18.13161

> <CNNscore>
0.4142268300

> <CNNaffinity>
5.9469037056

> <CNN_VS>
2.4633669853

> <CNNaffinity_variance>
1.0964396000

$$$$
[H]c1c([H])c(-c2c(C([H])([H])C([H])([H])[H])c(C3=NC4(C(=O)N3[H])C([H])([H])C([H])([H])C4([H])[H])nn2-c2c([H])c([H])c(Cl)c([H])c2Cl)c([H])c([H])c1Cl


 32 36  0  0  0  0  0  0  0  0999 V2000
   56.5868   -5.0956   -8.6040 C   0  0  0  0  0  0  0  0  0  0  0  0
   55.4604   -4.4795   -9.0582 C   0  0  0  0  0  0  0  0  0  0  0  0
   55.8066   -4.0741  -10.3212 N   0  0  0  0  0  0  0  0  0  0  0  0
   57.0448   -4.4157  -10.6255 N   0  0  0  0  0  0  0  0  0  0  0  0
   57.5867   -5.0606   -9.5977 C   0  0  0  0  0  0  0  0  0  0  0  0
   54.1359   -4.2691   -8.4986 C   0  0  0  0  0  0  0  0  0  0  0  0
   53.5480   -5.2051   -7.7530 N   0  0  0  0  0  0  0  0  0  0  0  0
   52.2661   -4.8047   -7.3066 C   0  0  0  0  0  0  0  0  0  0  0  0
   51.9972   -4.9375   -5.8247 C   0  0  0  0  0  0  0  0  0  0  0  0
   51.1393   -6.1319   -6.1176 C   0  0  0  0  0  0  0  0  0  0  0  0
   51.1229   -5.7512   -7.5790 C   0  0  0  0  0  0  0  0  0  0  0  0
   52.0602   -3.4368   -7.8063 C   0  0  0  0  0  0  0  0  0  0  0  0
   51.1025   -2.6471   -7.6533 O   0  0  0  0  0  0  0  0  0  0  0  0
   53.2743   -3.1698   -8.5638 N   0  0  0  0  0  0  0  0  0  0  0  0
   53.3897   -2.2538   -9.0447 H   0  0  0  0  0  0  0  0  0  0  0  0
   57.6667   -4.1298  -11.8791 C   0  0  0  0  0  0  0  0  0  0  0  0
   58.9607   -3.6298  -11.9981 C   0  0  0  0  0  0  0  0  0  0  0  0
   59.5111   -3.3431  -13.2211 C   0  0  0  0  0  0  0  0  0  0  0  0
   58.7945   -3.5433  -14.3681 C   0  0  0  0  0  0  0  0  0  0  0  0
   59.4362   -3.1991  -15.9621 Cl  0  0  0  0  0  0  0  0  0  0  0  0
   57.5158   -4.0340  -14.2890 C   0  0  0  0  0  0  0  0  0  0  0  0
   56.9586   -4.3249  -13.0321 C   0  0  0  0  0  0  0  0  0  0  0  0
   55.2969   -4.9110  -13.0019 Cl  0  0  0  0  0  0  0  0  0  0  0  0
   58.8470   -5.7714   -9.5223 C   0  0  0  0  0  0  0  0  0  0  0  0
   59.0595   -6.9148  -10.2450 C   0  0  0  0  0  0  0  0  0  0  0  0
   60.2171   -7.6647  -10.0806 C   0  0  0  0  0  0  0  0  0  0  0  0
   61.2027   -7.3017   -9.1918 C   0  0  0  0  0  0  0  0  0  0  0  0
   62.6681   -8.2357   -8.9739 Cl  0  0  0  0  0  0  0  0  0  0  0  0
   61.0008   -6.1523   -8.4575 C   0  0  0  0  0  0  0  0  0  0  0  0
   59.8435   -5.4182   -8.6316 C   0  0  0  0  0  0  0  0  0  0  0  0
   56.4737   -4.4002   -6.2425 C   0  0  0  0  0  0  0  0  0  0  0  0
   56.7316   -5.6020   -7.2004 C   0  0  0  0  0  0  0  0  0  0  0  0
 31 32  1  0  0  0
 32  1  1  0  0  0
  1  2  1  0  0  0
  2  6  1  0  0  0
  6  7  2  0  0  0
  7  8  1  0  0  0
  8  9  1  0  0  0
  9 10  1  0  0  0
 10 11  1  0  0  0
  8 12  1  0  0  0
 12 13  2  0  0  0
 12 14  1  0  0  0
  2  3  2  0  0  0
  3  4  1  0  0  0
  4 16  1  0  0  0
 16 17  2  0  0  0
 17 18  1  0  0  0
 18 19  2  0  0  0
 19 20  1  0  0  0
 19 21  1  0  0  0
 21 22  2  0  0  0
 22 23  1  0  0  0
  4  5  1  0  0  0
  5 24  1  0  0  0
 24 25  2  0  0  0
 25 26  1  0  0  0
 26 27  2  0  0  0
 27 28  1  0  0  0
 27 29  1  0  0  0
 29 30  2  0  0  0
  5  1  2  0  0  0
 30 24  1  0  0  0
 14  6  1  0  0  0
 22 16  1  0  0  0
 11  8  1  0  0  0
 14 15  1  0  0  0
M  END
> <minimizedAffinity>
-5.60287

> <CNNscore>
0.3951810896

> <CNNaffinity>
7.0978269577

> <CNN_VS>
2.8049268723

> <CNNaffinity_variance>
0.3194078505

$$$$
[H]c1c([H])c(-c2c(C([H])([H])C([H])([H])[H])c(C3=NC4(C(=O)N3[H])C([H])([H])C([H])([H])C4([H])[H])nn2-c2c([H])c([H])c(Cl)c([H])c2Cl)c([H])c([H])c1Cl


 32 36  0  0  0  0  0  0  0  0999 V2000
   55.8420   -4.7420   -8.4142 C   0  0  0  0  0  0  0  0  0  0  0  0
   54.5236   -4.5321   -8.6833 C   0  0  0  0  0  0  0  0  0  0  0  0
   54.4908   -4.4245  -10.0496 N   0  0  0  0  0  0  0  0  0  0  0  0
   55.6907   -4.5616  -10.5828 N   0  0  0  0  0  0  0  0  0  0  0  0
   56.5791   -4.7668   -9.6162 C   0  0  0  0  0  0  0  0  0  0  0  0
   53.3287   -4.4666   -7.8590 C   0  0  0  0  0  0  0  0  0  0  0  0
   52.2651   -3.7613   -8.2451 N   0  0  0  0  0  0  0  0  0  0  0  0
   51.2106   -3.8270   -7.3036 C   0  0  0  0  0  0  0  0  0  0  0  0
   49.8498   -4.2067   -7.8421 C   0  0  0  0  0  0  0  0  0  0  0  0
   49.4256   -2.7759   -7.6960 C   0  0  0  0  0  0  0  0  0  0  0  0
   50.6357   -2.5143   -6.8311 C   0  0  0  0  0  0  0  0  0  0  0  0
   51.6697   -4.7170   -6.2264 C   0  0  0  0  0  0  0  0  0  0  0  0
   51.0907   -5.1106   -5.1900 O   0  0  0  0  0  0  0  0  0  0  0  0
   53.0212   -5.0702   -6.6359 N   0  0  0  0  0  0  0  0  0  0  0  0
   53.5938   -5.6973   -6.0338 H   0  0  0  0  0  0  0  0  0  0  0  0
   55.9520   -4.5040  -11.9858 C   0  0  0  0  0  0  0  0  0  0  0  0
   55.4676   -5.4395  -12.8962 C   0  0  0  0  0  0  0  0  0  0  0  0
   55.7646   -5.3626  -14.2329 C   0  0  0  0  0  0  0  0  0  0  0  0
   56.5534   -4.3534  -14.7110 C   0  0  0  0  0  0  0  0  0  0  0  0
   56.9713   -4.1952  -16.4056 Cl  0  0  0  0  0  0  0  0  0  0  0  0
   57.0491   -3.4141  -13.8427 C   0  0  0  0  0  0  0  0  0  0  0  0
   56.7407   -3.5000  -12.4743 C   0  0  0  0  0  0  0  0  0  0  0  0
   57.4464   -2.2854  -11.4101 Cl  0  0  0  0  0  0  0  0  0  0  0  0
   57.9752   -5.1407   -9.7178 C   0  0  0  0  0  0  0  0  0  0  0  0
   58.6090   -5.1889  -10.9305 C   0  0  0  0  0  0  0  0  0  0  0  0
   59.9087   -5.6655  -11.0443 C   0  0  0  0  0  0  0  0  0  0  0  0
   60.6220   -6.1095   -9.9547 C   0  0  0  0  0  0  0  0  0  0  0  0
   62.2616   -6.7121  -10.0813 Cl  0  0  0  0  0  0  0  0  0  0  0  0
   59.9949   -6.0665   -8.7274 C   0  0  0  0  0  0  0  0  0  0  0  0
   58.7015   -5.5911   -8.6312 C   0  0  0  0  0  0  0  0  0  0  0  0
   56.4194   -3.3424   -6.4697 C   0  0  0  0  0  0  0  0  0  0  0  0
   56.3924   -4.7998   -7.0209 C   0  0  0  0  0  0  0  0  0  0  0  0
 31 32  1  0  0  0
 32  1  1  0  0  0
  1  2  1  0  0  0
  2  6  1  0  0  0
  6  7  2  0  0  0
  7  8  1  0  0  0
  8  9  1  0  0  0
  9 10  1  0  0  0
 10 11  1  0  0  0
  8 12  1  0  0  0
 12 13  2  0  0  0
 12 14  1  0  0  0
  2  3  2  0  0  0
  3  4  1  0  0  0
  4 16  1  0  0  0
 16 17  2  0  0  0
 17 18  1  0  0  0
 18 19  2  0  0  0
 19 20  1  0  0  0
 19 21  1  0  0  0
 21 22  2  0  0  0
 22 23  1  0  0  0
  4  5  1  0  0  0
  5 24  1  0  0  0
 24 25  2  0  0  0
 25 26  1  0  0  0
 26 27  2  0  0  0
 27 28  1  0  0  0
 27 29  1  0  0  0
 29 30  2  0  0  0
  5  1  2  0  0  0
 30 24  1  0  0  0
 14  6  1  0  0  0
 22 16  1  0  0  0
 11  8  1  0  0  0
 14 15  1  0  0  0
M  END
> <minimizedAffinity>
-4.79283

> <CNNscore>
0.3894048929

> <CNNaffinity>
7.1003770828

> <CNN_VS>
2.7649216652

> <CNNaffinity_variance>
0.2265048474

$$$$
[H]c1c([H])c(-c2c(C([H])([H])C([H])([H])[H])c(C3=NC4(C(=O)N3[H])C([H])([H])C([H])([H])C4([H])[H])nn2-c2c([H])c([H])c(Cl)c([H])c2Cl)c([H])c([H])c1Cl


 32 36  0  0  0  0  0  0  0  0999 V2000
   56.4882   -5.0792   -9.9891 C   0  0  0  0  0  0  0  0  0  0  0  0
   56.0587   -4.3416  -11.0502 C   0  0  0  0  0  0  0  0  0  0  0  0
   54.8440   -3.8616  -10.6334 N   0  0  0  0  0  0  0  0  0  0  0  0
   54.5483   -4.2656   -9.4119 N   0  0  0  0  0  0  0  0  0  0  0  0
   55.5356   -5.0260   -8.9506 C   0  0  0  0  0  0  0  0  0  0  0  0
   56.6386   -4.0045  -12.3392 C   0  0  0  0  0  0  0  0  0  0  0  0
   55.9523   -4.1796  -13.4688 N   0  0  0  0  0  0  0  0  0  0  0  0
   56.6940   -3.7913  -14.6098 C   0  0  0  0  0  0  0  0  0  0  0  0
   56.0085   -2.8441  -15.5684 C   0  0  0  0  0  0  0  0  0  0  0  0
   55.8137   -3.9905  -16.5152 C   0  0  0  0  0  0  0  0  0  0  0  0
   56.8109   -4.8027  -15.7236 C   0  0  0  0  0  0  0  0  0  0  0  0
   57.9792   -3.2752  -14.1145 C   0  0  0  0  0  0  0  0  0  0  0  0
   58.9548   -2.7893  -14.7279 O   0  0  0  0  0  0  0  0  0  0  0  0
   57.8804   -3.4555  -12.6734 N   0  0  0  0  0  0  0  0  0  0  0  0
   58.6769   -3.1761  -12.0642 H   0  0  0  0  0  0  0  0  0  0  0  0
   53.3494   -3.9100   -8.7218 C   0  0  0  0  0  0  0  0  0  0  0  0
   52.4301   -4.8427   -8.2490 C   0  0  0  0  0  0  0  0  0  0  0  0
   51.2768   -4.4576   -7.6146 C   0  0  0  0  0  0  0  0  0  0  0  0
   50.9972   -3.1324   -7.4282 C   0  0  0  0  0  0  0  0  0  0  0  0
   49.5437   -2.5712   -6.6259 Cl  0  0  0  0  0  0  0  0  0  0  0  0
   51.8800   -2.1853   -7.8817 C   0  0  0  0  0  0  0  0  0  0  0  0
   53.0595   -2.5877   -8.5313 C   0  0  0  0  0  0  0  0  0  0  0  0
   54.1267   -1.3179   -9.1264 Cl  0  0  0  0  0  0  0  0  0  0  0  0
   55.7439   -5.5486   -7.6154 C   0  0  0  0  0  0  0  0  0  0  0  0
   56.9706   -5.4795   -7.0112 C   0  0  0  0  0  0  0  0  0  0  0  0
   57.2037   -6.0888   -5.7849 C   0  0  0  0  0  0  0  0  0  0  0  0
   56.2235   -6.7870   -5.1180 C   0  0  0  0  0  0  0  0  0  0  0  0
   56.5011   -7.5596   -3.5710 Cl  0  0  0  0  0  0  0  0  0  0  0  0
   54.9834   -6.8644   -5.7160 C   0  0  0  0  0  0  0  0  0  0  0  0
   54.7680   -6.2542   -6.9365 C   0  0  0  0  0  0  0  0  0  0  0  0
   58.9443   -4.9461   -9.8368 C   0  0  0  0  0  0  0  0  0  0  0  0
   57.7350   -5.9110  -10.0235 C   0  0  0  0  0  0  0  0  0  0  0  0
 31 32  1  0  0  0
 32  1  1  0  0  0
  1  2  1  0  0  0
  2  6  1  0  0  0
  6  7  2  0  0  0
  7  8  1  0  0  0
  8  9  1  0  0  0
  9 10  1  0  0  0
 10 11  1  0  0  0
  8 12  1  0  0  0
 12 13  2  0  0  0
 12 14  1  0  0  0
  2  3  2  0  0  0
  3  4  1  0  0  0
  4 16  1  0  0  0
 16 17  2  0  0  0
 17 18  1  0  0  0
 18 19  2  0  0  0
 19 20  1  0  0  0
 19 21  1  0  0  0
 21 22  2  0  0  0
 22 23  1  0  0  0
  4  5  1  0  0  0
  5 24  1  0  0  0
 24 25  2  0  0  0
 25 26  1  0  0  0
 26 27  2  0  0  0
 27 28  1  0  0  0
 27 29  1  0  0  0
 29 30  2  0  0  0
  5  1  2  0  0  0
 30 24  1  0  0  0
 14  6  1  0  0  0
 22 16  1  0  0  0
 11  8  1  0  0  0
 14 15  1  0  0  0
M  END
> <minimizedAffinity>
-4.08895

> <CNNscore>
0.3435681760

> <CNNaffinity>
7.1416726112

> <CNN_VS>
2.4536514282

> <CNNaffinity_variance>
0.1877146512

$$$$
[H]c1c([H])c(-c2c(C([H])([H])C([H])([H])[H])c(C3=NC4(C(=O)N3[H])C([H])([H])C([H])([H])C4([H])[H])nn2-c2c([H])c([H])c(Cl)c([H])c2Cl)c([H])c([H])c1Cl


 32 36  0  0  0  0  0  0  0  0999 V2000
   59.4115   -6.0141   -8.2282 C   0  0  0  0  0  0  0  0  0  0  0  0
   58.9162   -6.1608   -6.9682 C   0  0  0  0  0  0  0  0  0  0  0  0
   57.6645   -5.6078   -7.0519 N   0  0  0  0  0  0  0  0  0  0  0  0
   57.4048   -5.1598   -8.2662 N   0  0  0  0  0  0  0  0  0  0  0  0
   58.4531   -5.3866   -9.0506 C   0  0  0  0  0  0  0  0  0  0  0  0
   59.4285   -6.7701   -5.7525 C   0  0  0  0  0  0  0  0  0  0  0  0
   59.0251   -7.9812   -5.3677 N   0  0  0  0  0  0  0  0  0  0  0  0
   59.6414   -8.3910   -4.1615 C   0  0  0  0  0  0  0  0  0  0  0  0
   60.2927   -9.7555   -4.1678 C   0  0  0  0  0  0  0  0  0  0  0  0
   59.1466  -10.2735   -3.3513 C   0  0  0  0  0  0  0  0  0  0  0  0
   58.7287   -8.8534   -3.0524 C   0  0  0  0  0  0  0  0  0  0  0  0
   60.5690   -7.3146   -3.7819 C   0  0  0  0  0  0  0  0  0  0  0  0
   61.3588   -7.2200   -2.8168 O   0  0  0  0  0  0  0  0  0  0  0  0
   60.3697   -6.3170   -4.8230 N   0  0  0  0  0  0  0  0  0  0  0  0
   60.9075   -5.4262   -4.7918 H   0  0  0  0  0  0  0  0  0  0  0  0
   56.1726   -4.5437   -8.6432 C   0  0  0  0  0  0  0  0  0  0  0  0
   56.0158   -3.1683   -8.7925 C   0  0  0  0  0  0  0  0  0  0  0  0
   54.8072   -2.6149   -9.1299 C   0  0  0  0  0  0  0  0  0  0  0  0
   53.7126   -3.4092   -9.3305 C   0  0  0  0  0  0  0  0  0  0  0  0
   52.1400   -2.7687   -9.7638 Cl  0  0  0  0  0  0  0  0  0  0  0  0
   53.8298   -4.7689   -9.1912 C   0  0  0  0  0  0  0  0  0  0  0  0
   55.0715   -5.3285   -8.8447 C   0  0  0  0  0  0  0  0  0  0  0  0
   55.1397   -7.0775   -8.6401 Cl  0  0  0  0  0  0  0  0  0  0  0  0
   58.5751   -5.2326  -10.4861 C   0  0  0  0  0  0  0  0  0  0  0  0
   59.7221   -4.7428  -11.0509 C   0  0  0  0  0  0  0  0  0  0  0  0
   59.7971   -4.4778  -12.4123 C   0  0  0  0  0  0  0  0  0  0  0  0
   58.7331   -4.6922  -13.2580 C   0  0  0  0  0  0  0  0  0  0  0  0
   58.8121   -4.3644  -14.9766 Cl  0  0  0  0  0  0  0  0  0  0  0  0
   57.5718   -5.1850  -12.7016 C   0  0  0  0  0  0  0  0  0  0  0  0
   57.5127   -5.4420  -11.3456 C   0  0  0  0  0  0  0  0  0  0  0  0
   60.7538   -7.3859   -9.7741 C   0  0  0  0  0  0  0  0  0  0  0  0
   60.8212   -6.3659   -8.5980 C   0  0  0  0  0  0  0  0  0  0  0  0
 31 32  1  0  0  0
 32  1  1  0  0  0
  1  2  1  0  0  0
  2  6  1  0  0  0
  6  7  2  0  0  0
  7  8  1  0  0  0
  8  9  1  0  0  0
  9 10  1  0  0  0
 10 11  1  0  0  0
  8 12  1  0  0  0
 12 13  2  0  0  0
 12 14  1  0  0  0
  2  3  2  0  0  0
  3  4  1  0  0  0
  4 16  1  0  0  0
 16 17  2  0  0  0
 17 18  1  0  0  0
 18 19  2  0  0  0
 19 20  1  0  0  0
 19 21  1  0  0  0
 21 22  2  0  0  0
 22 23  1  0  0  0
  4  5  1  0  0  0
  5 24  1  0  0  0
 24 25  2  0  0  0
 25 26  1  0  0  0
 26 27  2  0  0  0
 27 28  1  0  0  0
 27 29  1  0  0  0
 29 30  2  0  0  0
  5  1  2  0  0  0
 30 24  1  0  0  0
 14  6  1  0  0  0
 22 16  1  0  0  0
 11  8  1  0  0  0
 14 15  1  0  0  0
M  END
> <minimizedAffinity>
19.20561

> <CNNscore>
0.3430270255

> <CNNaffinity>
6.0261392593

> <CNN_VS>
2.0671286583

> <CNNaffinity_variance>
0.7193709612

$$$$
[H]c1c([H])c(-c2c(C([H])([H])C([H])([H])[H])c(C3=NC4(C(=O)N3[H])C([H])([H])C([H])([H])C4([H])[H])nn2-c2c([H])c([H])c(Cl)c([H])c2Cl)c([H])c([H])c1Cl


 32 36  0  0  0  0  0  0  0  0999 V2000
   56.8713   -4.8776   -8.6802 C   0  0  0  0  0  0  0  0  0  0  0  0
   56.3122   -4.5668   -9.8824 C   0  0  0  0  0  0  0  0  0  0  0  0
   54.9801   -4.4305   -9.5883 N   0  0  0  0  0  0  0  0  0  0  0  0
   54.7357   -4.6356   -8.3073 N   0  0  0  0  0  0  0  0  0  0  0  0
   55.8749   -4.9150   -7.6829 C   0  0  0  0  0  0  0  0  0  0  0  0
   56.8517   -4.3452  -11.2134 C   0  0  0  0  0  0  0  0  0  0  0  0
   56.0785   -4.4490  -12.2946 N   0  0  0  0  0  0  0  0  0  0  0  0
   56.7942   -4.1961  -13.4890 C   0  0  0  0  0  0  0  0  0  0  0  0
   56.1882   -3.1851  -14.4359 C   0  0  0  0  0  0  0  0  0  0  0  0
   55.7776   -4.3149  -15.3322 C   0  0  0  0  0  0  0  0  0  0  0  0
   56.6999   -5.2401  -14.5745 C   0  0  0  0  0  0  0  0  0  0  0  0
   58.1669   -3.8539  -13.0867 C   0  0  0  0  0  0  0  0  0  0  0  0
   59.1603   -3.5247  -13.7714 O   0  0  0  0  0  0  0  0  0  0  0  0
   58.1343   -3.9843  -11.6372 N   0  0  0  0  0  0  0  0  0  0  0  0
   58.9983   -3.8051  -11.0850 H   0  0  0  0  0  0  0  0  0  0  0  0
   53.4371   -4.5498   -7.7188 C   0  0  0  0  0  0  0  0  0  0  0  0
   52.8597   -5.5786   -6.9792 C   0  0  0  0  0  0  0  0  0  0  0  0
   51.5981   -5.4656   -6.4535 C   0  0  0  0  0  0  0  0  0  0  0  0
   50.8667   -4.3264   -6.6444 C   0  0  0  0  0  0  0  0  0  0  0  0
   49.2505   -4.1154   -6.0006 Cl  0  0  0  0  0  0  0  0  0  0  0  0
   51.4035   -3.2923   -7.3687 C   0  0  0  0  0  0  0  0  0  0  0  0
   52.6967   -3.4158   -7.9047 C   0  0  0  0  0  0  0  0  0  0  0  0
   53.3064   -2.0667   -8.8607 Cl  0  0  0  0  0  0  0  0  0  0  0  0
   56.1359   -5.0409   -6.2633 C   0  0  0  0  0  0  0  0  0  0  0  0
   56.3624   -6.2637   -5.6907 C   0  0  0  0  0  0  0  0  0  0  0  0
   56.4893   -6.4009   -4.3142 C   0  0  0  0  0  0  0  0  0  0  0  0
   56.3958   -5.3254   -3.4612 C   0  0  0  0  0  0  0  0  0  0  0  0
   56.5546   -5.4816   -1.7241 Cl  0  0  0  0  0  0  0  0  0  0  0  0
   56.1675   -4.0881   -4.0253 C   0  0  0  0  0  0  0  0  0  0  0  0
   56.0422   -3.9686   -5.3958 C   0  0  0  0  0  0  0  0  0  0  0  0
   58.6714   -6.2428   -9.6646 C   0  0  0  0  0  0  0  0  0  0  0  0
   58.3161   -5.2450   -8.5216 C   0  0  0  0  0  0  0  0  0  0  0  0
 31 32  1  0  0  0
 32  1  1  0  0  0
  1  2  1  0  0  0
  2  6  1  0  0  0
  6  7  2  0  0  0
  7  8  1  0  0  0
  8  9  1  0  0  0
  9 10  1  0  0  0
 10 11  1  0  0  0
  8 12  1  0  0  0
 12 13  2  0  0  0
 12 14  1  0  0  0
  2  3  2  0  0  0
  3  4  1  0  0  0
  4 16  1  0  0  0
 16 17  2  0  0  0
 17 18  1  0  0  0
 18 19  2  0  0  0
 19 20  1  0  0  0
 19 21  1  0  0  0
 21 22  2  0  0  0
 22 23  1  0  0  0
  4  5  1  0  0  0
  5 24  1  0  0  0
 24 25  2  0  0  0
 25 26  1  0  0  0
 26 27  2  0  0  0
 27 28  1  0  0  0
 27 29  1  0  0  0
 29 30  2  0  0  0
  5  1  2  0  0  0
 30 24  1  0  0  0
 14  6  1  0  0  0
 22 16  1  0  0  0
 11  8  1  0  0  0
 14 15  1  0  0  0
M  END
> <minimizedAffinity>
-9.01876

> <CNNscore>
0.3266128898

> <CNNaffinity>
7.3681335449

> <CNN_VS>
2.4065272808

> <CNNaffinity_variance>
0.1419739127

$$$$
[H]c1c([H])c(-c2c(C([H])([H])C([H])([H])[H])c(C3=NC4(C(=O)N3[H])C([H])([H])C([H])([H])C4([H])[H])nn2-c2c([H])c([H])c(Cl)c([H])c2Cl)c([H])c([H])c1Cl


 32 36  0  0  0  0  0  0  0  0999 V2000
   58.6596   -4.0308  -12.1876 C   0  0  0  0  0  0  0  0  0  0  0  0
   58.2945   -4.5369  -10.9772 C   0  0  0  0  0  0  0  0  0  0  0  0
   59.3756   -5.2961  -10.6105 N   0  0  0  0  0  0  0  0  0  0  0  0
   60.3335   -5.2588  -11.5180 N   0  0  0  0  0  0  0  0  0  0  0  0
   59.9517   -4.4825  -12.5267 C   0  0  0  0  0  0  0  0  0  0  0  0
   57.1250   -4.3710  -10.1309 C   0  0  0  0  0  0  0  0  0  0  0  0
   57.1027   -4.8510   -8.8872 N   0  0  0  0  0  0  0  0  0  0  0  0
   55.8758   -4.5847   -8.2341 C   0  0  0  0  0  0  0  0  0  0  0  0
   55.9656   -3.9415   -6.8686 C   0  0  0  0  0  0  0  0  0  0  0  0
   55.6052   -5.2617   -6.2558 C   0  0  0  0  0  0  0  0  0  0  0  0
   55.1654   -5.7614   -7.6114 C   0  0  0  0  0  0  0  0  0  0  0  0
   55.0606   -3.8087   -9.1809 C   0  0  0  0  0  0  0  0  0  0  0  0
   53.9178   -3.3150   -9.0606 O   0  0  0  0  0  0  0  0  0  0  0  0
   55.9063   -3.7259  -10.3627 N   0  0  0  0  0  0  0  0  0  0  0  0
   55.5609   -3.2272  -11.2087 H   0  0  0  0  0  0  0  0  0  0  0  0
   61.5777   -5.9492  -11.3942 C   0  0  0  0  0  0  0  0  0  0  0  0
   62.4413   -6.1733  -12.4631 C   0  0  0  0  0  0  0  0  0  0  0  0
   63.6151   -6.8650  -12.3064 C   0  0  0  0  0  0  0  0  0  0  0  0
   63.9713   -7.3578  -11.0819 C   0  0  0  0  0  0  0  0  0  0  0  0
   65.4557   -8.2491  -10.8111 Cl  0  0  0  0  0  0  0  0  0  0  0  0
   63.1443   -7.1566  -10.0059 C   0  0  0  0  0  0  0  0  0  0  0  0
   61.9429   -6.4473  -10.1747 C   0  0  0  0  0  0  0  0  0  0  0  0
   60.9084   -6.2637   -8.7598 Cl  0  0  0  0  0  0  0  0  0  0  0  0
   60.7208   -4.0029  -13.6571 C   0  0  0  0  0  0  0  0  0  0  0  0
   61.6154   -2.9755  -13.5202 C   0  0  0  0  0  0  0  0  0  0  0  0
   62.2611   -2.4323  -14.6236 C   0  0  0  0  0  0  0  0  0  0  0  0
   62.0388   -2.8939  -15.9006 C   0  0  0  0  0  0  0  0  0  0  0  0
   62.8457   -2.2207  -17.3017 Cl  0  0  0  0  0  0  0  0  0  0  0  0
   61.1397   -3.9283  -16.0521 C   0  0  0  0  0  0  0  0  0  0  0  0
   60.5047   -4.4567  -14.9449 C   0  0  0  0  0  0  0  0  0  0  0  0
   57.0527   -4.2082  -14.0476 C   0  0  0  0  0  0  0  0  0  0  0  0
   57.7342   -3.2251  -13.0490 C   0  0  0  0  0  0  0  0  0  0  0  0
 31 32  1  0  0  0
 32  1  1  0  0  0
  1  2  1  0  0  0
  2  6  1  0  0  0
  6  7  2  0  0  0
  7  8  1  0  0  0
  8  9  1  0  0  0
  9 10  1  0  0  0
 10 11  1  0  0  0
  8 12  1  0  0  0
 12 13  2  0  0  0
 12 14  1  0  0  0
  2  3  2  0  0  0
  3  4  1  0  0  0
  4 16  1  0  0  0
 16 17  2  0  0  0
 17 18  1  0  0  0
 18 19  2  0  0  0
 19 20  1  0  0  0
 19 21  1  0  0  0
 21 22  2  0  0  0
 22 23  1  0  0  0
  4  5  1  0  0  0
  5 24  1  0  0  0
 24 25  2  0  0  0
 25 26  1  0  0  0
 26 27  2  0  0  0
 27 28  1  0  0  0
 27 29  1  0  0  0
 29 30  2  0  0  0
  5  1  2  0  0  0
 30 24  1  0  0  0
 14  6  1  0  0  0
 22 16  1  0  0  0
 11  8  1  0  0  0
 14 15  1  0  0  0
M  END
> <minimizedAffinity>
-2.33554

> <CNNscore>
0.3060866892

> <CNNaffinity>
6.0973062515

> <CNN_VS>
1.8663042784

> <CNNaffinity_variance>
0.2182186097

$$$$
[H]c1nc(OC([H])([H])C([H])([H])Oc2nc([H])c(Br)c([H])n2)c(-c2c([H])c([H])c(C([H])([H])[H])c([H])c2[H])c(N([H])S(=O)(=O)c2c([H])c([H])c(Cl)c([H])c2[H])n1


 36 39  0  0  0  0  0  0  0  0999 V2000
   54.2950   -3.9274   -8.1973 C   0  0  0  0  0  0  0  0  0  0  0  0
   53.1751   -4.0694   -7.4539 C   0  0  0  0  0  0  0  0  0  0  0  0
   51.9346   -3.5392   -8.0067 N   0  0  0  0  0  0  0  0  0  0  0  0
   51.8871   -2.9528   -9.1666 C   0  0  0  0  0  0  0  0  0  0  0  0
   52.9887   -2.8066   -9.9125 N   0  0  0  0  0  0  0  0  0  0  0  0
   54.1122   -3.2376   -9.4853 C   0  0  0  0  0  0  0  0  0  0  0  0
   59.7999   -5.2570   -8.5763 C   0  0  0  0  0  0  0  0  0  0  0  0
   58.3684   -5.0710   -8.2645 C   0  0  0  0  0  0  0  0  0  0  0  0
   57.3712   -5.8070   -8.7825 C   0  0  0  0  0  0  0  0  0  0  0  0
   56.0338   -5.5646   -8.6735 C   0  0  0  0  0  0  0  0  0  0  0  0
   55.5989   -4.4350   -7.9374 C   0  0  0  0  0  0  0  0  0  0  0  0
   56.6082   -3.6779   -7.3618 C   0  0  0  0  0  0  0  0  0  0  0  0
   57.9801   -3.9256   -7.4706 C   0  0  0  0  0  0  0  0  0  0  0  0
   53.1396   -4.6080   -6.1856 N   0  0  0  0  0  0  0  0  0  0  0  0
   53.0139   -4.1709   -5.3219 H   0  0  0  0  0  0  0  0  0  0  0  0
   53.4502   -6.3703   -6.1067 S   0  0  0  0  0  0  0  0  0  0  0  0
   52.0064   -6.9083   -5.7766 O   0  0  0  0  0  0  0  0  0  0  0  0
   53.7432   -6.9135   -7.4565 O   0  0  0  0  0  0  0  0  0  0  0  0
   54.4722   -6.8906   -4.8720 C   0  0  0  0  0  0  0  0  0  0  0  0
   55.4648   -6.1150   -4.4158 C   0  0  0  0  0  0  0  0  0  0  0  0
   56.4193   -6.3906   -3.5242 C   0  0  0  0  0  0  0  0  0  0  0  0
   56.4217   -7.6592   -2.9859 C   0  0  0  0  0  0  0  0  0  0  0  0
   57.6339   -8.1584   -1.8079 Cl  0  0  0  0  0  0  0  0  0  0  0  0
   55.4529   -8.6248   -3.3761 C   0  0  0  0  0  0  0  0  0  0  0  0
   54.4820   -8.2107   -4.3220 C   0  0  0  0  0  0  0  0  0  0  0  0
   55.3168   -3.0958  -10.1072 O   0  0  0  0  0  0  0  0  0  0  0  0
   55.8151   -2.7539  -11.2097 C   0  0  0  0  0  0  0  0  0  0  0  0
   56.9934   -2.8624  -12.0503 C   0  0  0  0  0  0  0  0  0  0  0  0
   58.0867   -3.5348  -12.0097 O   0  0  0  0  0  0  0  0  0  0  0  0
   59.1662   -4.2020  -11.9772 C   0  0  0  0  0  0  0  0  0  0  0  0
   59.1706   -5.4992  -11.2850 N   0  0  0  0  0  0  0  0  0  0  0  0
   60.2433   -6.2864  -11.2294 C   0  0  0  0  0  0  0  0  0  0  0  0
   61.4312   -5.8806  -11.8511 C   0  0  0  0  0  0  0  0  0  0  0  0
   62.9730   -6.9860  -11.7288 Br  0  0  0  0  0  0  0  0  0  0  0  0
   61.4604   -4.6700  -12.4917 C   0  0  0  0  0  0  0  0  0  0  0  0
   60.4039   -3.9667  -12.4971 N   0  0  0  0  0  0  0  0  0  0  0  0
  7  8  1  0  0  0
  8  9  2  0  0  0
  9 10  1  0  0  0
 10 11  2  0  0  0
 11  1  1  0  0  0
  1  2  1  0  0  0
  2 14  1  0  0  0
 14 16  1  0  0  0
 16 17  2  0  0  0
 16 18  2  0  0  0
 16 19  1  0  0  0
 19 20  2  0  0  0
 20 21  1  0  0  0
 21 22  2  0  0  0
 22 23  1  0  0  0
 22 24  1  0  0  0
 24 25  2  0  0  0
  2  3  2  0  0  0
  3  4  1  0  0  0
  4  5  2  0  0  0
  5  6  1  0  0  0
  6 26  1  0  0  0
 26 27  1  0  0  0
 27 28  1  0  0  0
 28 29  1  0  0  0
 29 30  1  0  0  0
 30 31  2  0  0  0
 31 32  1  0  0  0
 32 33  2  0  0  0
 33 34  1  0  0  0
 33 35  1  0  0  0
 35 36  2  0  0  0
 11 12  1  0  0  0
 12 13  2  0  0  0
 13  8  1  0  0  0
  6  1  2  0  0  0
 36 30  1  0  0  0
 25 19  1  0  0  0
 14 15  1  0  0  0
M  END
> <minimizedAffinity>
3.13305

> <CNNscore>
0.4783949554

> <CNNaffinity>
6.6880431175

> <CNN_VS>
3.1995260715

> <CNNaffinity_variance>
0.3212877214

$$$$
[H]c1nc(OC([H])([H])C([H])([H])Oc2nc([H])c(Br)c([H])n2)c(-c2c([H])c([H])c(C([H])([H])[H])c([H])c2[H])c(N([H])S(=O)(=O)c2c([H])c([H])c(Cl)c([H])c2[H])n1


 36 39  0  0  0  0  0  0  0  0999 V2000
   56.4479   -4.3702   -8.5390 C   0  0  0  0  0  0  0  0  0  0  0  0
   55.5679   -3.5637   -9.1730 C   0  0  0  0  0  0  0  0  0  0  0  0
   55.7936   -3.3126  -10.5913 N   0  0  0  0  0  0  0  0  0  0  0  0
   56.7932   -3.8362  -11.2378 C   0  0  0  0  0  0  0  0  0  0  0  0
   57.6710   -4.6370  -10.6217 N   0  0  0  0  0  0  0  0  0  0  0  0
   57.5407   -4.8913   -9.3772 C   0  0  0  0  0  0  0  0  0  0  0  0
   54.7880   -5.6532   -3.2652 C   0  0  0  0  0  0  0  0  0  0  0  0
   55.4592   -5.4052   -4.5571 C   0  0  0  0  0  0  0  0  0  0  0  0
   56.0237   -4.2397   -4.9140 C   0  0  0  0  0  0  0  0  0  0  0  0
   56.4903   -3.9013   -6.1497 C   0  0  0  0  0  0  0  0  0  0  0  0
   56.4024   -4.8486   -7.1994 C   0  0  0  0  0  0  0  0  0  0  0  0
   55.8555   -6.0737   -6.8483 C   0  0  0  0  0  0  0  0  0  0  0  0
   55.3783   -6.4236   -5.5815 C   0  0  0  0  0  0  0  0  0  0  0  0
   54.5244   -2.9057   -8.5580 N   0  0  0  0  0  0  0  0  0  0  0  0
   54.5325   -2.1191   -7.9800 H   0  0  0  0  0  0  0  0  0  0  0  0
   52.9160   -3.6581   -8.7939 S   0  0  0  0  0  0  0  0  0  0  0  0
   52.2220   -2.5843   -9.7149 O   0  0  0  0  0  0  0  0  0  0  0  0
   53.0206   -4.8640   -9.6527 O   0  0  0  0  0  0  0  0  0  0  0  0
   51.9633   -3.8241   -7.4139 C   0  0  0  0  0  0  0  0  0  0  0  0
   52.1708   -4.8176   -6.5394 C   0  0  0  0  0  0  0  0  0  0  0  0
   51.4681   -5.1596   -5.4572 C   0  0  0  0  0  0  0  0  0  0  0  0
   50.3464   -4.4087   -5.1795 C   0  0  0  0  0  0  0  0  0  0  0  0
   49.3223   -4.7607   -3.7891 Cl  0  0  0  0  0  0  0  0  0  0  0  0
   49.9599   -3.3273   -6.0188 C   0  0  0  0  0  0  0  0  0  0  0  0
   50.7927   -3.0523   -7.1322 C   0  0  0  0  0  0  0  0  0  0  0  0
   58.3946   -5.6306   -8.6140 O   0  0  0  0  0  0  0  0  0  0  0  0
   59.5911   -6.0146   -8.5762 C   0  0  0  0  0  0  0  0  0  0  0  0
   60.6397   -6.6680   -9.3379 C   0  0  0  0  0  0  0  0  0  0  0  0
   61.0837   -7.8688   -9.4388 O   0  0  0  0  0  0  0  0  0  0  0  0
   61.5222   -9.0565   -9.5305 C   0  0  0  0  0  0  0  0  0  0  0  0
   61.4216   -9.9360   -8.3564 N   0  0  0  0  0  0  0  0  0  0  0  0
   61.8201  -11.2066   -8.3674 C   0  0  0  0  0  0  0  0  0  0  0  0
   62.3622  -11.7506   -9.5390 C   0  0  0  0  0  0  0  0  0  0  0  0
   62.9727  -13.5510   -9.5359 Br  0  0  0  0  0  0  0  0  0  0  0  0
   62.4810  -10.9504  -10.6446 C   0  0  0  0  0  0  0  0  0  0  0  0
   62.0898   -9.7460  -10.5601 N   0  0  0  0  0  0  0  0  0  0  0  0
  7  8  1  0  0  0
  8  9  2  0  0  0
  9 10  1  0  0  0
 10 11  2  0  0  0
 11  1  1  0  0  0
  1  2  1  0  0  0
  2 14  1  0  0  0
 14 16  1  0  0  0
 16 17  2  0  0  0
 16 18  2  0  0  0
 16 19  1  0  0  0
 19 20  2  0  0  0
 20 21  1  0  0  0
 21 22  2  0  0  0
 22 23  1  0  0  0
 22 24  1  0  0  0
 24 25  2  0  0  0
  2  3  2  0  0  0
  3  4  1  0  0  0
  4  5  2  0  0  0
  5  6  1  0  0  0
  6 26  1  0  0  0
 26 27  1  0  0  0
 27 28  1  0  0  0
 28 29  1  0  0  0
 29 30  1  0  0  0
 30 31  2  0  0  0
 31 32  1  0  0  0
 32 33  2  0  0  0
 33 34  1  0  0  0
 33 35  1  0  0  0
 35 36  2  0  0  0
 11 12  1  0  0  0
 12 13  2  0  0  0
 13  8  1  0  0  0
  6  1  2  0  0  0
 36 30  1  0  0  0
 25 19  1  0  0  0
 14 15  1  0  0  0
M  END
> <minimizedAffinity>
-8.03533

> <CNNscore>
0.4617127180

> <CNNaffinity>
6.9826307297

> <CNN_VS>
3.2239694595

> <CNNaffinity_variance>
0.1494114101

$$$$
[H]c1nc(OC([H])([H])C([H])([H])Oc2nc([H])c(Br)c([H])n2)c(-c2c([H])c([H])c(C([H])([H])[H])c([H])c2[H])c(N([H])S(=O)(=O)c2c([H])c([H])c(Cl)c([H])c2[H])n1


 36 39  0  0  0  0  0  0  0  0999 V2000
   56.5014   -4.4078   -8.5374 C   0  0  0  0  0  0  0  0  0  0  0  0
   55.6489   -3.5819   -9.1839 C   0  0  0  0  0  0  0  0  0  0  0  0
   55.9056   -3.3294  -10.5967 N   0  0  0  0  0  0  0  0  0  0  0  0
   56.9069   -3.8694  -11.2269 C   0  0  0  0  0  0  0  0  0  0  0  0
   57.7577   -4.6894  -10.5982 N   0  0  0  0  0  0  0  0  0  0  0  0
   57.5995   -4.9462   -9.3575 C   0  0  0  0  0  0  0  0  0  0  0  0
   54.7134   -5.6953   -3.3067 C   0  0  0  0  0  0  0  0  0  0  0  0
   55.4153   -5.4486   -4.5825 C   0  0  0  0  0  0  0  0  0  0  0  0
   55.9980   -4.2869   -4.9221 C   0  0  0  0  0  0  0  0  0  0  0  0
   56.4949   -3.9481   -6.1459 C   0  0  0  0  0  0  0  0  0  0  0  0
   56.4219   -4.8907   -7.2010 C   0  0  0  0  0  0  0  0  0  0  0  0
   55.8564   -6.1121   -6.8669 C   0  0  0  0  0  0  0  0  0  0  0  0
   55.3481   -6.4624   -5.6123 C   0  0  0  0  0  0  0  0  0  0  0  0
   54.6069   -2.9066   -8.5853 N   0  0  0  0  0  0  0  0  0  0  0  0
   54.6182   -2.1146   -8.0148 H   0  0  0  0  0  0  0  0  0  0  0  0
   52.9926   -3.6434   -8.8298 S   0  0  0  0  0  0  0  0  0  0  0  0
   52.3030   -2.5479   -9.7282 O   0  0  0  0  0  0  0  0  0  0  0  0
   53.0861   -4.8337   -9.7113 O   0  0  0  0  0  0  0  0  0  0  0  0
   52.0433   -3.8287   -7.4499 C   0  0  0  0  0  0  0  0  0  0  0  0
   52.2407   -4.8451   -6.5997 C   0  0  0  0  0  0  0  0  0  0  0  0
   51.5378   -5.2028   -5.5227 C   0  0  0  0  0  0  0  0  0  0  0  0
   50.4277   -4.4433   -5.2226 C   0  0  0  0  0  0  0  0  0  0  0  0
   49.4045   -4.8139   -3.8363 Cl  0  0  0  0  0  0  0  0  0  0  0  0
   50.0526   -3.3374   -6.0346 C   0  0  0  0  0  0  0  0  0  0  0  0
   50.8846   -3.0479   -7.1450 C   0  0  0  0  0  0  0  0  0  0  0  0
   58.4247   -5.7049   -8.5820 O   0  0  0  0  0  0  0  0  0  0  0  0
   59.5621   -6.2404   -8.5955 C   0  0  0  0  0  0  0  0  0  0  0  0
   60.9251   -6.0912   -9.0716 C   0  0  0  0  0  0  0  0  0  0  0  0
   61.6141   -6.5795  -10.0392 O   0  0  0  0  0  0  0  0  0  0  0  0
   62.3019   -7.0615  -10.9910 C   0  0  0  0  0  0  0  0  0  0  0  0
   62.4057   -6.2954  -12.2418 N   0  0  0  0  0  0  0  0  0  0  0  0
   63.1329   -6.7011  -13.2810 C   0  0  0  0  0  0  0  0  0  0  0  0
   63.8389   -7.9084  -13.2011 C   0  0  0  0  0  0  0  0  0  0  0  0
   64.8377   -8.5064  -14.7040 Br  0  0  0  0  0  0  0  0  0  0  0  0
   63.7495   -8.6503  -12.0528 C   0  0  0  0  0  0  0  0  0  0  0  0
   63.0303   -8.2078  -11.1053 N   0  0  0  0  0  0  0  0  0  0  0  0
  7  8  1  0  0  0
  8  9  2  0  0  0
  9 10  1  0  0  0
 10 11  2  0  0  0
 11  1  1  0  0  0
  1  2  1  0  0  0
  2 14  1  0  0  0
 14 16  1  0  0  0
 16 17  2  0  0  0
 16 18  2  0  0  0
 16 19  1  0  0  0
 19 20  2  0  0  0
 20 21  1  0  0  0
 21 22  2  0  0  0
 22 23  1  0  0  0
 22 24  1  0  0  0
 24 25  2  0  0  0
  2  3  2  0  0  0
  3  4  1  0  0  0
  4  5  2  0  0  0
  5  6  1  0  0  0
  6 26  1  0  0  0
 26 27  1  0  0  0
 27 28  1  0  0  0
 28 29  1  0  0  0
 29 30  1  0  0  0
 30 31  2  0  0  0
 31 32  1  0  0  0
 32 33  2  0  0  0
 33 34  1  0  0  0
 33 35  1  0  0  0
 35 36  2  0  0  0
 11 12  1  0  0  0
 12 13  2  0  0  0
 13  8  1  0  0  0
  6  1  2  0  0  0
 36 30  1  0  0  0
 25 19  1  0  0  0
 14 15  1  0  0  0
M  END
> <minimizedAffinity>
-7.82980

> <CNNscore>
0.4159855545

> <CNNaffinity>
6.9016466141

> <CNN_VS>
2.8709852695

> <CNNaffinity_variance>
0.0690743327

$$$$
[H]c1nc(OC([H])([H])C([H])([H])Oc2nc([H])c(Br)c([H])n2)c(-c2c([H])c([H])c(C([H])([H])[H])c([H])c2[H])c(N([H])S(=O)(=O)c2c([H])c([H])c(Cl)c([H])c2[H])n1


 36 39  0  0  0  0  0  0  0  0999 V2000
   62.9689   -8.8559   -4.2806 C   0  0  0  0  0  0  0  0  0  0  0  0
   63.5450   -8.4157   -5.4213 C   0  0  0  0  0  0  0  0  0  0  0  0
   64.2340   -7.1319   -5.3695 N   0  0  0  0  0  0  0  0  0  0  0  0
   64.3044   -6.4261   -4.2795 C   0  0  0  0  0  0  0  0  0  0  0  0
   63.7388   -6.8513   -3.1434 N   0  0  0  0  0  0  0  0  0  0  0  0
   63.1093   -7.9619   -3.1190 C   0  0  0  0  0  0  0  0  0  0  0  0
   60.7807  -14.0608   -4.8599 C   0  0  0  0  0  0  0  0  0  0  0  0
   61.2340  -12.7107   -4.4692 C   0  0  0  0  0  0  0  0  0  0  0  0
   60.5731  -11.5735   -4.7421 C   0  0  0  0  0  0  0  0  0  0  0  0
   61.0295  -10.3004   -4.5687 C   0  0  0  0  0  0  0  0  0  0  0  0
   62.3282  -10.1034   -4.0380 C   0  0  0  0  0  0  0  0  0  0  0  0
   63.0185  -11.2618   -3.7142 C   0  0  0  0  0  0  0  0  0  0  0  0
   62.5518  -12.5681   -3.8893 C   0  0  0  0  0  0  0  0  0  0  0  0
   63.4602   -9.0554   -6.6394 N   0  0  0  0  0  0  0  0  0  0  0  0
   63.9625   -9.8184   -6.9834 H   0  0  0  0  0  0  0  0  0  0  0  0
   62.3048   -8.3231   -7.7958 S   0  0  0  0  0  0  0  0  0  0  0  0
   61.3838   -9.5613   -8.1144 O   0  0  0  0  0  0  0  0  0  0  0  0
   61.4050   -7.3660   -7.1051 O   0  0  0  0  0  0  0  0  0  0  0  0
   62.9524   -7.7922   -9.2582 C   0  0  0  0  0  0  0  0  0  0  0  0
   64.0761   -7.0638   -9.2990 C   0  0  0  0  0  0  0  0  0  0  0  0
   64.6765   -6.4829  -10.3402 C   0  0  0  0  0  0  0  0  0  0  0  0
   64.0660   -6.6202  -11.5679 C   0  0  0  0  0  0  0  0  0  0  0  0
   64.7458   -5.8925  -13.0221 Cl  0  0  0  0  0  0  0  0  0  0  0  0
   62.8482   -7.3420  -11.7063 C   0  0  0  0  0  0  0  0  0  0  0  0
   62.3127   -7.9246  -10.5304 C   0  0  0  0  0  0  0  0  0  0  0  0
   62.4327   -8.4794   -2.0547 O   0  0  0  0  0  0  0  0  0  0  0  0
   61.3766   -8.3156   -1.3927 C   0  0  0  0  0  0  0  0  0  0  0  0
   60.5392   -7.3237   -0.7433 C   0  0  0  0  0  0  0  0  0  0  0  0
   59.3055   -6.9758   -0.8220 O   0  0  0  0  0  0  0  0  0  0  0  0
   58.0851   -6.6335   -0.8919 C   0  0  0  0  0  0  0  0  0  0  0  0
   57.6997   -5.5980   -1.8621 N   0  0  0  0  0  0  0  0  0  0  0  0
   56.4406   -5.1995   -2.0338 C   0  0  0  0  0  0  0  0  0  0  0  0
   55.4218   -5.7791   -1.2667 C   0  0  0  0  0  0  0  0  0  0  0  0
   53.6326   -5.1737   -1.4820 Br  0  0  0  0  0  0  0  0  0  0  0  0
   55.7534   -6.7367   -0.3448 C   0  0  0  0  0  0  0  0  0  0  0  0
   56.9747   -7.0613   -0.2274 N   0  0  0  0  0  0  0  0  0  0  0  0
  7  8  1  0  0  0
  8  9  2  0  0  0
  9 10  1  0  0  0
 10 11  2  0  0  0
 11  1  1  0  0  0
  1  2  1  0  0  0
  2 14  1  0  0  0
 14 16  1  0  0  0
 16 17  2  0  0  0
 16 18  2  0  0  0
 16 19  1  0  0  0
 19 20  2  0  0  0
 20 21  1  0  0  0
 21 22  2  0  0  0
 22 23  1  0  0  0
 22 24  1  0  0  0
 24 25  2  0  0  0
  2  3  2  0  0  0
  3  4  1  0  0  0
  4  5  2  0  0  0
  5  6  1  0  0  0
  6 26  1  0  0  0
 26 27  1  0  0  0
 27 28  1  0  0  0
 28 29  1  0  0  0
 29 30  1  0  0  0
 30 31  2  0  0  0
 31 32  1  0  0  0
 32 33  2  0  0  0
 33 34  1  0  0  0
 33 35  1  0  0  0
 35 36  2  0  0  0
 11 12  1  0  0  0
 12 13  2  0  0  0
 13  8  1  0  0  0
  6  1  2  0  0  0
 36 30  1  0  0  0
 25 19  1  0  0  0
 14 15  1  0  0  0
M  END
> <minimizedAffinity>
-4.11243

> <CNNscore>
0.3588456810

> <CNNaffinity>
5.7883391380

> <CNN_VS>
2.0771205425

> <CNNaffinity_variance>
0.7066680193

$$$$
[H]c1nc(OC([H])([H])C([H])([H])Oc2nc([H])c(Br)c([H])n2)c(-c2c([H])c([H])c(C([H])([H])[H])c([H])c2[H])c(N([H])S(=O)(=O)c2c([H])c([H])c(Cl)c([H])c2[H])n1


 36 39  0  0  0  0  0  0  0  0999 V2000
   53.7483   -4.2227   -8.3737 C   0  0  0  0  0  0  0  0  0  0  0  0
   53.0401   -4.0193   -9.5069 C   0  0  0  0  0  0  0  0  0  0  0  0
   53.0135   -2.6641  -10.0438 N   0  0  0  0  0  0  0  0  0  0  0  0
   53.6411   -1.6791   -9.4718 C   0  0  0  0  0  0  0  0  0  0  0  0
   54.3463   -1.8677   -8.3500 N   0  0  0  0  0  0  0  0  0  0  0  0
   54.4039   -3.0271   -7.8182 C   0  0  0  0  0  0  0  0  0  0  0  0
   55.4509   -8.1280   -4.6235 C   0  0  0  0  0  0  0  0  0  0  0  0
   54.9514   -7.3209   -5.7549 C   0  0  0  0  0  0  0  0  0  0  0  0
   55.7199   -6.8266   -6.7395 C   0  0  0  0  0  0  0  0  0  0  0  0
   55.3459   -5.9321   -7.6982 C   0  0  0  0  0  0  0  0  0  0  0  0
   54.0135   -5.4510   -7.7055 C   0  0  0  0  0  0  0  0  0  0  0  0
   53.1891   -5.9732   -6.7201 C   0  0  0  0  0  0  0  0  0  0  0  0
   53.5698   -6.8919   -5.7372 C   0  0  0  0  0  0  0  0  0  0  0  0
   52.2841   -4.9813  -10.1418 N   0  0  0  0  0  0  0  0  0  0  0  0
   51.4443   -5.3987   -9.8711 H   0  0  0  0  0  0  0  0  0  0  0  0
   52.9941   -5.6175  -11.6583 S   0  0  0  0  0  0  0  0  0  0  0  0
   53.1505   -7.1421  -11.2920 O   0  0  0  0  0  0  0  0  0  0  0  0
   51.9924   -5.6052  -12.7534 O   0  0  0  0  0  0  0  0  0  0  0  0
   54.5251   -5.0405  -12.0617 C   0  0  0  0  0  0  0  0  0  0  0  0
   55.0617   -5.2724  -13.2672 C   0  0  0  0  0  0  0  0  0  0  0  0
   56.2808   -4.9814  -13.7265 C   0  0  0  0  0  0  0  0  0  0  0  0
   57.1465   -4.3648  -12.8493 C   0  0  0  0  0  0  0  0  0  0  0  0
   58.7895   -3.9374  -13.3228 Cl  0  0  0  0  0  0  0  0  0  0  0  0
   56.7517   -4.0651  -11.5161 C   0  0  0  0  0  0  0  0  0  0  0  0
   55.4275   -4.4113  -11.1479 C   0  0  0  0  0  0  0  0  0  0  0  0
   55.0254   -3.3445   -6.6472 O   0  0  0  0  0  0  0  0  0  0  0  0
   56.1497   -3.6796   -6.1951 C   0  0  0  0  0  0  0  0  0  0  0  0
   57.5516   -3.8414   -6.5346 C   0  0  0  0  0  0  0  0  0  0  0  0
   58.2160   -4.5811   -7.3474 O   0  0  0  0  0  0  0  0  0  0  0  0
   58.8678   -5.3185   -8.1491 C   0  0  0  0  0  0  0  0  0  0  0  0
   60.2157   -5.7596   -7.7609 N   0  0  0  0  0  0  0  0  0  0  0  0
   60.9605   -6.5631   -8.5179 C   0  0  0  0  0  0  0  0  0  0  0  0
   60.4575   -7.0208   -9.7426 C   0  0  0  0  0  0  0  0  0  0  0  0
   61.5428   -8.1295  -10.8412 Br  0  0  0  0  0  0  0  0  0  0  0  0
   59.2098   -6.6147  -10.1366 C   0  0  0  0  0  0  0  0  0  0  0  0
   58.5592   -5.8405   -9.3697 N   0  0  0  0  0  0  0  0  0  0  0  0
  7  8  1  0  0  0
  8  9  2  0  0  0
  9 10  1  0  0  0
 10 11  2  0  0  0
 11  1  1  0  0  0
  1  2  1  0  0  0
  2 14  1  0  0  0
 14 16  1  0  0  0
 16 17  2  0  0  0
 16 18  2  0  0  0
 16 19  1  0  0  0
 19 20  2  0  0  0
 20 21  1  0  0  0
 21 22  2  0  0  0
 22 23  1  0  0  0
 22 24  1  0  0  0
 24 25  2  0  0  0
  2  3  2  0  0  0
  3  4  1  0  0  0
  4  5  2  0  0  0
  5  6  1  0  0  0
  6 26  1  0  0  0
 26 27  1  0  0  0
 27 28  1  0  0  0
 28 29  1  0  0  0
 29 30  1  0  0  0
 30 31  2  0  0  0
 31 32  1  0  0  0
 32 33  2  0  0  0
 33 34  1  0  0  0
 33 35  1  0  0  0
 35 36  2  0  0  0
 11 12  1  0  0  0
 12 13  2  0  0  0
 13  8  1  0  0  0
  6  1  2  0  0  0
 36 30  1  0  0  0
 25 19  1  0  0  0
 14 15  1  0  0  0
M  END
> <minimizedAffinity>
18.18308

> <CNNscore>
0.3535173833

> <CNNaffinity>
5.9860153198

> <CNN_VS>
2.1161603928

> <CNNaffinity_variance>
0.4421927929

$$$$
[H]c1nc(OC([H])([H])C([H])([H])Oc2nc([H])c(Br)c([H])n2)c(-c2c([H])c([H])c(C([H])([H])[H])c([H])c2[H])c(N([H])S(=O)(=O)c2c([H])c([H])c(Cl)c([H])c2[H])n1


 36 39  0  0  0  0  0  0  0  0999 V2000
   56.8103   -4.8527   -9.2234 C   0  0  0  0  0  0  0  0  0  0  0  0
   58.0765   -5.1921   -9.5529 C   0  0  0  0  0  0  0  0  0  0  0  0
   58.4632   -5.0520  -10.9516 N   0  0  0  0  0  0  0  0  0  0  0  0
   57.6390   -4.6176  -11.8589 C   0  0  0  0  0  0  0  0  0  0  0  0
   56.3830   -4.2776  -11.5453 N   0  0  0  0  0  0  0  0  0  0  0  0
   55.9729   -4.3856  -10.3409 C   0  0  0  0  0  0  0  0  0  0  0  0
   55.8829   -5.2126   -3.6355 C   0  0  0  0  0  0  0  0  0  0  0  0
   55.8637   -5.0644   -5.1047 C   0  0  0  0  0  0  0  0  0  0  0  0
   55.6788   -6.0730   -5.9724 C   0  0  0  0  0  0  0  0  0  0  0  0
   55.8322   -6.0256   -7.3265 C   0  0  0  0  0  0  0  0  0  0  0  0
   56.2160   -4.8033   -7.9312 C   0  0  0  0  0  0  0  0  0  0  0  0
   56.3788   -3.7363   -7.0604 C   0  0  0  0  0  0  0  0  0  0  0  0
   56.2203   -3.7821   -5.6719 C   0  0  0  0  0  0  0  0  0  0  0  0
   58.9961   -5.7303   -8.6785 N   0  0  0  0  0  0  0  0  0  0  0  0
   58.9948   -5.7537   -7.7027 H   0  0  0  0  0  0  0  0  0  0  0  0
   60.4551   -6.4238   -9.4527 S   0  0  0  0  0  0  0  0  0  0  0  0
   59.9191   -7.8463   -9.8675 O   0  0  0  0  0  0  0  0  0  0  0  0
   60.7367   -5.7481  -10.7438 O   0  0  0  0  0  0  0  0  0  0  0  0
   61.7865   -6.6644   -8.4482 C   0  0  0  0  0  0  0  0  0  0  0  0
   61.7115   -7.4550   -7.3692 C   0  0  0  0  0  0  0  0  0  0  0  0
   62.6197   -7.6863   -6.4186 C   0  0  0  0  0  0  0  0  0  0  0  0
   63.8180   -7.0143   -6.5249 C   0  0  0  0  0  0  0  0  0  0  0  0
   65.0984   -7.2182   -5.3310 Cl  0  0  0  0  0  0  0  0  0  0  0  0
   64.0618   -6.1118   -7.5969 C   0  0  0  0  0  0  0  0  0  0  0  0
   63.0258   -5.9581   -8.5518 C   0  0  0  0  0  0  0  0  0  0  0  0
   54.7074   -4.1407   -9.8975 O   0  0  0  0  0  0  0  0  0  0  0  0
   53.7844   -3.2921   -9.9908 C   0  0  0  0  0  0  0  0  0  0  0  0
   52.7529   -2.5921   -9.2475 C   0  0  0  0  0  0  0  0  0  0  0  0
   51.9776   -2.8816   -8.2655 O   0  0  0  0  0  0  0  0  0  0  0  0
   51.2137   -3.1754   -7.2952 C   0  0  0  0  0  0  0  0  0  0  0  0
   51.5324   -4.3588   -6.4826 N   0  0  0  0  0  0  0  0  0  0  0  0
   50.8123   -4.7254   -5.4241 C   0  0  0  0  0  0  0  0  0  0  0  0
   49.6974   -3.9643   -5.0497 C   0  0  0  0  0  0  0  0  0  0  0  0
   48.6453   -4.5182   -3.5662 Br  0  0  0  0  0  0  0  0  0  0  0  0
   49.3684   -2.8642   -5.7968 C   0  0  0  0  0  0  0  0  0  0  0  0
   50.0935   -2.5787   -6.7986 N   0  0  0  0  0  0  0  0  0  0  0  0
  7  8  1  0  0  0
  8  9  2  0  0  0
  9 10  1  0  0  0
 10 11  2  0  0  0
 11  1  1  0  0  0
  1  2  1  0  0  0
  2 14  1  0  0  0
 14 16  1  0  0  0
 16 17  2  0  0  0
 16 18  2  0  0  0
 16 19  1  0  0  0
 19 20  2  0  0  0
 20 21  1  0  0  0
 21 22  2  0  0  0
 22 23  1  0  0  0
 22 24  1  0  0  0
 24 25  2  0  0  0
  2  3  2  0  0  0
  3  4  1  0  0  0
  4  5  2  0  0  0
  5  6  1  0  0  0
  6 26  1  0  0  0
 26 27  1  0  0  0
 27 28  1  0  0  0
 28 29  1  0  0  0
 29 30  1  0  0  0
 30 31  2  0  0  0
 31 32  1  0  0  0
 32 33  2  0  0  0
 33 34  1  0  0  0
 33 35  1  0  0  0
 35 36  2  0  0  0
 11 12  1  0  0  0
 12 13  2  0  0  0
 13  8  1  0  0  0
  6  1  2  0  0  0
 36 30  1  0  0  0
 25 19  1  0  0  0
 14 15  1  0  0  0
M  END
> <minimizedAffinity>
-8.49700

> <CNNscore>
0.3332092762

> <CNNaffinity>
6.7466788292

> <CNN_VS>
2.2480559349

> <CNNaffinity_variance>
0.3488551974

$$$$
[H]c1nc(OC([H])([H])C([H])([H])Oc2nc([H])c(Br)c([H])n2)c(-c2c([H])c([H])c(C([H])([H])[H])c([H])c2[H])c(N([H])S(=O)(=O)c2c([H])c([H])c(Cl)c([H])c2[H])n1


 36 39  0  0  0  0  0  0  0  0999 V2000
   56.8322   -4.1246  -12.5246 C   0  0  0  0  0  0  0  0  0  0  0  0
   56.2295   -4.0567  -11.3167 C   0  0  0  0  0  0  0  0  0  0  0  0
   54.8719   -4.5789  -11.2171 N   0  0  0  0  0  0  0  0  0  0  0  0
   54.2509   -5.0949  -12.2366 C   0  0  0  0  0  0  0  0  0  0  0  0
   54.8369   -5.1685  -13.4377 N   0  0  0  0  0  0  0  0  0  0  0  0
   56.0214   -4.7201  -13.5999 C   0  0  0  0  0  0  0  0  0  0  0  0
   62.0979   -4.1659  -14.6425 C   0  0  0  0  0  0  0  0  0  0  0  0
   60.8085   -3.9381  -13.9593 C   0  0  0  0  0  0  0  0  0  0  0  0
   60.4564   -4.4912  -12.7869 C   0  0  0  0  0  0  0  0  0  0  0  0
   59.2229   -4.4622  -12.2065 C   0  0  0  0  0  0  0  0  0  0  0  0
   58.1704   -3.7804  -12.8655 C   0  0  0  0  0  0  0  0  0  0  0  0
   58.5166   -3.1697  -14.0615 C   0  0  0  0  0  0  0  0  0  0  0  0
   59.7812   -3.1965  -14.6576 C   0  0  0  0  0  0  0  0  0  0  0  0
   56.7771   -3.4623  -10.2000 N   0  0  0  0  0  0  0  0  0  0  0  0
   57.3876   -2.7040  -10.1288 H   0  0  0  0  0  0  0  0  0  0  0  0
   56.3652   -4.2540   -8.6469 S   0  0  0  0  0  0  0  0  0  0  0  0
   56.9364   -5.7015   -8.8948 O   0  0  0  0  0  0  0  0  0  0  0  0
   57.2001   -3.7151   -7.5445 O   0  0  0  0  0  0  0  0  0  0  0  0
   54.7225   -4.4159   -8.3076 C   0  0  0  0  0  0  0  0  0  0  0  0
   53.8994   -3.3590   -8.3280 C   0  0  0  0  0  0  0  0  0  0  0  0
   52.6084   -3.2791   -7.9982 C   0  0  0  0  0  0  0  0  0  0  0  0
   52.0069   -4.4353   -7.5504 C   0  0  0  0  0  0  0  0  0  0  0  0
   50.3114   -4.4660   -7.0703 Cl  0  0  0  0  0  0  0  0  0  0  0  0
   52.7394   -5.6495   -7.4403 C   0  0  0  0  0  0  0  0  0  0  0  0
   54.1012   -5.6128   -7.8317 C   0  0  0  0  0  0  0  0  0  0  0  0
   56.7080   -4.6701  -14.7764 O   0  0  0  0  0  0  0  0  0  0  0  0
   57.0297   -3.8672  -15.6888 C   0  0  0  0  0  0  0  0  0  0  0  0
   56.5062   -2.9850  -16.7156 C   0  0  0  0  0  0  0  0  0  0  0  0
   55.5691   -2.1090  -16.7776 O   0  0  0  0  0  0  0  0  0  0  0  0
   54.6380   -1.2486  -16.8425 C   0  0  0  0  0  0  0  0  0  0  0  0
   54.9243    0.0516  -17.4667 N   0  0  0  0  0  0  0  0  0  0  0  0
   54.0036    1.0025  -17.6134 C   0  0  0  0  0  0  0  0  0  0  0  0
   52.6976    0.7756  -17.1604 C   0  0  0  0  0  0  0  0  0  0  0  0
   51.3988    2.1535  -17.3296 Br  0  0  0  0  0  0  0  0  0  0  0  0
   52.4054   -0.4216  -16.5620 C   0  0  0  0  0  0  0  0  0  0  0  0
   53.3342   -1.2788  -16.4465 N   0  0  0  0  0  0  0  0  0  0  0  0
  7  8  1  0  0  0
  8  9  2  0  0  0
  9 10  1  0  0  0
 10 11  2  0  0  0
 11  1  1  0  0  0
  1  2  1  0  0  0
  2 14  1  0  0  0
 14 16  1  0  0  0
 16 17  2  0  0  0
 16 18  2  0  0  0
 16 19  1  0  0  0
 19 20  2  0  0  0
 20 21  1  0  0  0
 21 22  2  0  0  0
 22 23  1  0  0  0
 22 24  1  0  0  0
 24 25  2  0  0  0
  2  3  2  0  0  0
  3  4  1  0  0  0
  4  5  2  0  0  0
  5  6  1  0  0  0
  6 26  1  0  0  0
 26 27  1  0  0  0
 27 28  1  0  0  0
 28 29  1  0  0  0
 29 30  1  0  0  0
 30 31  2  0  0  0
 31 32  1  0  0  0
 32 33  2  0  0  0
 33 34  1  0  0  0
 33 35  1  0  0  0
 35 36  2  0  0  0
 11 12  1  0  0  0
 12 13  2  0  0  0
 13  8  1  0  0  0
  6  1  2  0  0  0
 36 30  1  0  0  0
 25 19  1  0  0  0
 14 15  1  0  0  0
M  END
> <minimizedAffinity>
1.65551

> <CNNscore>
0.3069560528

> <CNNaffinity>
6.3577089310

> <CNN_VS>
1.9515372515

> <CNNaffinity_variance>
0.2316997945

$$$$
[H]c1nc(OC([H])([H])C([H])([H])Oc2nc([H])c(Br)c([H])n2)c(-c2c([H])c([H])c(C([H])([H])[H])c([H])c2[H])c(N([H])S(=O)(=O)c2c([H])c([H])c(Cl)c([H])c2[H])n1


 36 39  0  0  0  0  0  0  0  0999 V2000
   56.9620   -3.8395  -11.1247 C   0  0  0  0  0  0  0  0  0  0  0  0
   57.8708   -3.6249  -12.1019 C   0  0  0  0  0  0  0  0  0  0  0  0
   57.3908   -3.6510  -13.4783 N   0  0  0  0  0  0  0  0  0  0  0  0
   56.1428   -3.8675  -13.7735 C   0  0  0  0  0  0  0  0  0  0  0  0
   55.2331   -4.0806  -12.8151 N   0  0  0  0  0  0  0  0  0  0  0  0
   55.5856   -4.0828  -11.5879 C   0  0  0  0  0  0  0  0  0  0  0  0
   56.3204   -4.3925   -5.5125 C   0  0  0  0  0  0  0  0  0  0  0  0
   56.6898   -4.0871   -6.9094 C   0  0  0  0  0  0  0  0  0  0  0  0
   56.1580   -3.0939   -7.6410 C   0  0  0  0  0  0  0  0  0  0  0  0
   56.3256   -2.8826   -8.9776 C   0  0  0  0  0  0  0  0  0  0  0  0
   57.1464   -3.7709   -9.7152 C   0  0  0  0  0  0  0  0  0  0  0  0
   57.7365   -4.7851   -8.9760 C   0  0  0  0  0  0  0  0  0  0  0  0
   57.5677   -5.0026   -7.6051 C   0  0  0  0  0  0  0  0  0  0  0  0
   59.2233   -3.4611  -11.8918 N   0  0  0  0  0  0  0  0  0  0  0  0
   59.7112   -3.2666  -11.0691 H   0  0  0  0  0  0  0  0  0  0  0  0
   60.2303   -3.5407  -13.3711 S   0  0  0  0  0  0  0  0  0  0  0  0
   59.1435   -3.9245  -14.4457 O   0  0  0  0  0  0  0  0  0  0  0  0
   60.6804   -2.1850  -13.7742 O   0  0  0  0  0  0  0  0  0  0  0  0
   61.4112   -4.7423  -13.4029 C   0  0  0  0  0  0  0  0  0  0  0  0
   61.6599   -5.5034  -12.3287 C   0  0  0  0  0  0  0  0  0  0  0  0
   62.6069   -6.4250  -12.1392 C   0  0  0  0  0  0  0  0  0  0  0  0
   63.4865   -6.6375  -13.1786 C   0  0  0  0  0  0  0  0  0  0  0  0
   64.7913   -7.8158  -13.0556 Cl  0  0  0  0  0  0  0  0  0  0  0  0
   63.3861   -5.8974  -14.3891 C   0  0  0  0  0  0  0  0  0  0  0  0
   62.3314   -4.9547  -14.4769 C   0  0  0  0  0  0  0  0  0  0  0  0
   54.7810   -4.3518  -10.5208 O   0  0  0  0  0  0  0  0  0  0  0  0
   54.6778   -5.1398   -9.5467 C   0  0  0  0  0  0  0  0  0  0  0  0
   53.8026   -5.5707   -8.4720 C   0  0  0  0  0  0  0  0  0  0  0  0
   53.9707   -6.0362   -7.2869 O   0  0  0  0  0  0  0  0  0  0  0  0
   54.1361   -6.4889   -6.1126 C   0  0  0  0  0  0  0  0  0  0  0  0
   53.3181   -5.9350   -5.0236 N   0  0  0  0  0  0  0  0  0  0  0  0
   53.3940   -6.3707   -3.7675 C   0  0  0  0  0  0  0  0  0  0  0  0
   54.2860   -7.4020   -3.4466 C   0  0  0  0  0  0  0  0  0  0  0  0
   54.4245   -7.9884   -1.6435 Br  0  0  0  0  0  0  0  0  0  0  0  0
   55.0711   -7.9278   -4.4385 C   0  0  0  0  0  0  0  0  0  0  0  0
   54.9533   -7.4579   -5.6116 N   0  0  0  0  0  0  0  0  0  0  0  0
  7  8  1  0  0  0
  8  9  2  0  0  0
  9 10  1  0  0  0
 10 11  2  0  0  0
 11  1  1  0  0  0
  1  2  1  0  0  0
  2 14  1  0  0  0
 14 16  1  0  0  0
 16 17  2  0  0  0
 16 18  2  0  0  0
 16 19  1  0  0  0
 19 20  2  0  0  0
 20 21  1  0  0  0
 21 22  2  0  0  0
 22 23  1  0  0  0
 22 24  1  0  0  0
 24 25  2  0  0  0
  2  3  2  0  0  0
  3  4  1  0  0  0
  4  5  2  0  0  0
  5  6  1  0  0  0
  6 26  1  0  0  0
 26 27  1  0  0  0
 27 28  1  0  0  0
 28 29  1  0  0  0
 29 30  1  0  0  0
 30 31  2  0  0  0
 31 32  1  0  0  0
 32 33  2  0  0  0
 33 34  1  0  0  0
 33 35  1  0  0  0
 35 36  2  0  0  0
 11 12  1  0  0  0
 12 13  2  0  0  0
 13  8  1  0  0  0
  6  1  2  0  0  0
 36 30  1  0  0  0
 25 19  1  0  0  0
 14 15  1  0  0  0
M  END
> <minimizedAffinity>
-0.35260

> <CNNscore>
0.3063099980

> <CNNaffinity>
6.2919592857

> <CNN_VS>
1.9272900820

> <CNNaffinity_variance>
0.5576551557

$$$$
[H]c1nc(OC([H])([H])C([H])([H])Oc2nc([H])c(Br)c([H])n2)c(-c2c([H])c([H])c(C([H])([H])[H])c([H])c2[H])c(N([H])S(=O)(=O)c2c([H])c([H])c(Cl)c([H])c2[H])n1


 36 39  0  0  0  0  0  0  0  0999 V2000
   56.6234   -4.9204   -8.1097 C   0  0  0  0  0  0  0  0  0  0  0  0
   57.7088   -4.9194   -8.9153 C   0  0  0  0  0  0  0  0  0  0  0  0
   57.5096   -4.5230  -10.3041 N   0  0  0  0  0  0  0  0  0  0  0  0
   56.3439   -4.1788  -10.7667 C   0  0  0  0  0  0  0  0  0  0  0  0
   55.2617   -4.1749   -9.9791 N   0  0  0  0  0  0  0  0  0  0  0  0
   55.3610   -4.5216   -8.7542 C   0  0  0  0  0  0  0  0  0  0  0  0
   54.8080   -5.6927   -2.7878 C   0  0  0  0  0  0  0  0  0  0  0  0
   55.5242   -5.5004   -4.0650 C   0  0  0  0  0  0  0  0  0  0  0  0
   55.8284   -4.3057   -4.5985 C   0  0  0  0  0  0  0  0  0  0  0  0
   56.3198   -4.0693   -5.8483 C   0  0  0  0  0  0  0  0  0  0  0  0
   56.5619   -5.1678   -6.7095 C   0  0  0  0  0  0  0  0  0  0  0  0
   56.2895   -6.4158   -6.1697 C   0  0  0  0  0  0  0  0  0  0  0  0
   55.7874   -6.6608   -4.8879 C   0  0  0  0  0  0  0  0  0  0  0  0
   58.9662   -5.3382   -8.5364 N   0  0  0  0  0  0  0  0  0  0  0  0
   59.4232   -5.2539   -7.6780 H   0  0  0  0  0  0  0  0  0  0  0  0
   59.9384   -6.0814   -9.8444 S   0  0  0  0  0  0  0  0  0  0  0  0
   59.0804   -7.3663  -10.1541 O   0  0  0  0  0  0  0  0  0  0  0  0
   59.8513   -5.2750  -11.0874 O   0  0  0  0  0  0  0  0  0  0  0  0
   61.4833   -6.6025   -9.4182 C   0  0  0  0  0  0  0  0  0  0  0  0
   61.9654   -6.4155   -8.1823 C   0  0  0  0  0  0  0  0  0  0  0  0
   63.1819   -6.6707   -7.6956 C   0  0  0  0  0  0  0  0  0  0  0  0
   64.1085   -7.1890   -8.5741 C   0  0  0  0  0  0  0  0  0  0  0  0
   65.7548   -7.5594   -8.0652 Cl  0  0  0  0  0  0  0  0  0  0  0  0
   63.7759   -7.4287   -9.9361 C   0  0  0  0  0  0  0  0  0  0  0  0
   62.4485   -7.1294  -10.3326 C   0  0  0  0  0  0  0  0  0  0  0  0
   54.3350   -4.6279   -7.8631 O   0  0  0  0  0  0  0  0  0  0  0  0
   53.4189   -5.4151   -7.5142 C   0  0  0  0  0  0  0  0  0  0  0  0
   52.5055   -5.7509   -6.4373 C   0  0  0  0  0  0  0  0  0  0  0  0
   51.4763   -5.1970   -5.9053 O   0  0  0  0  0  0  0  0  0  0  0  0
   50.4570   -4.6462   -5.3865 C   0  0  0  0  0  0  0  0  0  0  0  0
   49.9091   -3.4394   -6.0234 N   0  0  0  0  0  0  0  0  0  0  0  0
   48.8228   -2.8136   -5.5744 C   0  0  0  0  0  0  0  0  0  0  0  0
   48.1562   -3.3095   -4.4466 C   0  0  0  0  0  0  0  0  0  0  0  0
   46.6335   -2.3858   -3.7816 Br  0  0  0  0  0  0  0  0  0  0  0  0
   48.6523   -4.4246   -3.8242 C   0  0  0  0  0  0  0  0  0  0  0  0
   49.6973   -4.9646   -4.3007 N   0  0  0  0  0  0  0  0  0  0  0  0
  7  8  1  0  0  0
  8  9  2  0  0  0
  9 10  1  0  0  0
 10 11  2  0  0  0
 11  1  1  0  0  0
  1  2  1  0  0  0
  2 14  1  0  0  0
 14 16  1  0  0  0
 16 17  2  0  0  0
 16 18  2  0  0  0
 16 19  1  0  0  0
 19 20  2  0  0  0
 20 21  1  0  0  0
 21 22  2  0  0  0
 22 23  1  0  0  0
 22 24  1  0  0  0
 24 25  2  0  0  0
  2  3  2  0  0  0
  3  4  1  0  0  0
  4  5  2  0  0  0
  5  6  1  0  0  0
  6 26  1  0  0  0
 26 27  1  0  0  0
 27 28  1  0  0  0
 28 29  1  0  0  0
 29 30  1  0  0  0
 30 31  2  0  0  0
 31 32  1  0  0  0
 32 33  2  0  0  0
 33 34  1  0  0  0
 33 35  1  0  0  0
 35 36  2  0  0  0
 11 12  1  0  0  0
 12 13  2  0  0  0
 13  8  1  0  0  0
  6  1  2  0  0  0
 36 30  1  0  0  0
 25 19  1  0  0  0
 14 15  1  0  0  0
M  END
> <minimizedAffinity>
-6.01734

> <CNNscore>
0.2931204140

> <CNNaffinity>
6.5773658752

> <CNN_VS>
1.9279601574

> <CNNaffinity_variance>
0.3053507209

$$$$
[H]c1nc(N([H])[C@@]([H])(c2c([H])c([H])c(Cl)c([H])c2[H])C([H])([H])N([H])C([H])([H])[H])c2nc([H])c([H])c(C(=O)N([H])[H])c2n1


 29 31  0  0  0  0  0  0  0  0999 V2000
   53.0493   -3.7830   -8.8365 C   0  0  0  0  0  0  0  0  0  0  0  0
   52.6587   -2.5356   -9.1546 N   0  0  0  0  0  0  0  0  0  0  0  0
   51.6702   -1.9095   -8.4590 C   0  0  0  0  0  0  0  0  0  0  0  0
   51.0429   -2.5151   -7.4226 N   0  0  0  0  0  0  0  0  0  0  0  0
   51.3906   -3.7497   -7.0653 C   0  0  0  0  0  0  0  0  0  0  0  0
   50.7526   -4.3674   -6.0093 C   0  0  0  0  0  0  0  0  0  0  0  0
   51.1669   -5.6440   -5.6989 C   0  0  0  0  0  0  0  0  0  0  0  0
   52.1673   -6.2570   -6.4155 C   0  0  0  0  0  0  0  0  0  0  0  0
   52.7643   -5.6249   -7.4355 N   0  0  0  0  0  0  0  0  0  0  0  0
   52.4046   -4.3883   -7.7813 C   0  0  0  0  0  0  0  0  0  0  0  0
   49.6916   -3.7296   -5.2382 C   0  0  0  0  0  0  0  0  0  0  0  0
   48.8034   -2.8510   -5.8799 N   0  0  0  0  0  0  0  0  0  0  0  0
   49.5506   -3.9491   -3.9994 O   0  0  0  0  0  0  0  0  0  0  0  0
   48.5267   -1.9816   -5.3429 H   0  0  0  0  0  0  0  0  0  0  0  0
   48.4458   -3.0532   -6.8270 H   0  0  0  0  0  0  0  0  0  0  0  0
   54.0850   -4.4219   -9.5717 N   0  0  0  0  0  0  0  0  0  0  0  0
   53.8475   -4.7642  -10.5331 H   0  0  0  0  0  0  0  0  0  0  0  0
   55.4136   -4.5998   -9.0308 C   0  0  0  0  0  0  0  0  0  0  0  0
   56.4172   -4.4137  -10.0792 C   0  0  0  0  0  0  0  0  0  0  0  0
   56.1966   -3.7181  -11.2478 C   0  0  0  0  0  0  0  0  0  0  0  0
   57.1783   -3.5714  -12.2047 C   0  0  0  0  0  0  0  0  0  0  0  0
   58.4212   -4.1271  -12.0082 C   0  0  0  0  0  0  0  0  0  0  0  0
   59.6752   -3.9420  -13.2261 Cl  0  0  0  0  0  0  0  0  0  0  0  0
   58.6677   -4.8293  -10.8446 C   0  0  0  0  0  0  0  0  0  0  0  0
   57.6712   -4.9596   -9.9088 C   0  0  0  0  0  0  0  0  0  0  0  0
   55.5843   -3.6980   -7.8336 C   0  0  0  0  0  0  0  0  0  0  0  0
   55.6879   -4.6527   -5.6231 C   0  0  0  0  0  0  0  0  0  0  0  0
   56.3980   -4.2573   -6.8019 N   0  0  0  0  0  0  0  0  0  0  0  0
   56.9028   -5.0712   -7.1750 H   0  0  0  0  0  0  0  0  0  0  0  0
 27 28  1  0  0  0
 28 26  1  0  0  0
 26 18  1  0  0  0
 18 16  1  0  0  0
 16  1  1  0  0  0
  1  2  2  0  0  0
  2  3  1  0  0  0
  3  4  2  0  0  0
  4  5  1  0  0  0
  5  6  2  0  0  0
  6 11  1  0  0  0
 11 12  1  0  0  0
 11 13  2  0  0  0
  6  7  1  0  0  0
  7  8  2  0  0  0
  8  9  1  0  0  0
  9 10  2  0  0  0
 18 19  1  0  0  0
 19 20  2  0  0  0
 20 21  1  0  0  0
 21 22  2  0  0  0
 22 23  1  0  0  0
 22 24  1  0  0  0
 24 25  2  0  0  0
 10  1  1  0  0  0
 25 19  1  0  0  0
 10  5  1  0  0  0
 28 29  1  0  0  0
 16 17  1  0  0  0
 12 14  1  0  0  0
 12 15  1  0  0  0
M  END
> <minimizedAffinity>
-8.20345

> <CNNscore>
0.8353427052

> <CNNaffinity>
7.0601296425

> <CNN_VS>
5.8976278305

> <CNNaffinity_variance>
0.0774295852

$$$$
[H]c1nc(N([H])[C@@]([H])(c2c([H])c([H])c(Cl)c([H])c2[H])C([H])([H])N([H])C([H])([H])[H])c2nc([H])c([H])c(C(=O)N([H])[H])c2n1


 29 31  0  0  0  0  0  0  0  0999 V2000
   55.7304   -4.3082   -7.2497 C   0  0  0  0  0  0  0  0  0  0  0  0
   54.6319   -3.6617   -7.6799 N   0  0  0  0  0  0  0  0  0  0  0  0
   54.4714   -3.3462   -8.9943 C   0  0  0  0  0  0  0  0  0  0  0  0
   55.4075   -3.6695   -9.9180 N   0  0  0  0  0  0  0  0  0  0  0  0
   56.5141   -4.3101   -9.5466 C   0  0  0  0  0  0  0  0  0  0  0  0
   57.4683   -4.6404  -10.4868 C   0  0  0  0  0  0  0  0  0  0  0  0
   58.5855   -5.3023  -10.0268 C   0  0  0  0  0  0  0  0  0  0  0  0
   58.7266   -5.6105   -8.6944 C   0  0  0  0  0  0  0  0  0  0  0  0
   57.7777   -5.2733   -7.8099 N   0  0  0  0  0  0  0  0  0  0  0  0
   56.6750   -4.6316   -8.1977 C   0  0  0  0  0  0  0  0  0  0  0  0
   57.3320   -4.3225  -11.9036 C   0  0  0  0  0  0  0  0  0  0  0  0
   57.0001   -3.0134  -12.2894 N   0  0  0  0  0  0  0  0  0  0  0  0
   57.5063   -5.2009  -12.7985 O   0  0  0  0  0  0  0  0  0  0  0  0
   56.3174   -2.9152  -13.0926 H   0  0  0  0  0  0  0  0  0  0  0  0
   57.4072   -2.1968  -11.8067 H   0  0  0  0  0  0  0  0  0  0  0  0
   55.8816   -4.6324   -5.8737 N   0  0  0  0  0  0  0  0  0  0  0  0
   56.4989   -4.0090   -5.3008 H   0  0  0  0  0  0  0  0  0  0  0  0
   55.2197   -5.7695   -5.2752 C   0  0  0  0  0  0  0  0  0  0  0  0
   53.8661   -5.9093   -5.8129 C   0  0  0  0  0  0  0  0  0  0  0  0
   53.5732   -6.4662   -7.0386 C   0  0  0  0  0  0  0  0  0  0  0  0
   52.2781   -6.5749   -7.4987 C   0  0  0  0  0  0  0  0  0  0  0  0
   51.2325   -6.1209   -6.7288 C   0  0  0  0  0  0  0  0  0  0  0  0
   49.5801   -6.2579   -7.3123 Cl  0  0  0  0  0  0  0  0  0  0  0  0
   51.4996   -5.5586   -5.4958 C   0  0  0  0  0  0  0  0  0  0  0  0
   52.7993   -5.4630   -5.0629 C   0  0  0  0  0  0  0  0  0  0  0  0
   56.0889   -6.9911   -5.4421 C   0  0  0  0  0  0  0  0  0  0  0  0
   57.8806   -7.2294   -3.8478 C   0  0  0  0  0  0  0  0  0  0  0  0
   57.4656   -6.7650   -5.1371 N   0  0  0  0  0  0  0  0  0  0  0  0
   58.0479   -7.2135   -5.8556 H   0  0  0  0  0  0  0  0  0  0  0  0
 27 28  1  0  0  0
 28 26  1  0  0  0
 26 18  1  0  0  0
 18 16  1  0  0  0
 16  1  1  0  0  0
  1  2  2  0  0  0
  2  3  1  0  0  0
  3  4  2  0  0  0
  4  5  1  0  0  0
  5  6  2  0  0  0
  6 11  1  0  0  0
 11 12  1  0  0  0
 11 13  2  0  0  0
  6  7  1  0  0  0
  7  8  2  0  0  0
  8  9  1  0  0  0
  9 10  2  0  0  0
 18 19  1  0  0  0
 19 20  2  0  0  0
 20 21  1  0  0  0
 21 22  2  0  0  0
 22 23  1  0  0  0
 22 24  1  0  0  0
 24 25  2  0  0  0
 10  1  1  0  0  0
 25 19  1  0  0  0
 10  5  1  0  0  0
 28 29  1  0  0  0
 16 17  1  0  0  0
 12 14  1  0  0  0
 12 15  1  0  0  0
M  END
> <minimizedAffinity>
-8.31304

> <CNNscore>
0.7557252049

> <CNNaffinity>
6.9148459435

> <CNN_VS>
5.2257232666

> <CNNaffinity_variance>
0.3018664420

$$$$
[H]c1nc(N([H])[C@@]([H])(c2c([H])c([H])c(Cl)c([H])c2[H])C([H])([H])N([H])C([H])([H])[H])c2nc([H])c([H])c(C(=O)N([H])[H])c2n1


 29 31  0  0  0  0  0  0  0  0999 V2000
   53.6440   -4.0596   -8.9403 C   0  0  0  0  0  0  0  0  0  0  0  0
   53.3264   -2.8512   -9.4391 N   0  0  0  0  0  0  0  0  0  0  0  0
   52.2863   -2.1333   -8.9335 C   0  0  0  0  0  0  0  0  0  0  0  0
   51.5325   -2.6048   -7.9119 N   0  0  0  0  0  0  0  0  0  0  0  0
   51.8036   -3.7953   -7.3806 C   0  0  0  0  0  0  0  0  0  0  0  0
   51.0366   -4.2766   -6.3395 C   0  0  0  0  0  0  0  0  0  0  0  0
   51.3778   -5.5152   -5.8425 C   0  0  0  0  0  0  0  0  0  0  0  0
   52.4324   -6.2229   -6.3689 C   0  0  0  0  0  0  0  0  0  0  0  0
   53.1550   -5.7225   -7.3807 N   0  0  0  0  0  0  0  0  0  0  0  0
   52.8709   -4.5285   -7.9021 C   0  0  0  0  0  0  0  0  0  0  0  0
   49.9166   -3.5371   -5.7689 C   0  0  0  0  0  0  0  0  0  0  0  0
   49.2463   -2.5840   -6.5532 N   0  0  0  0  0  0  0  0  0  0  0  0
   49.5316   -3.7335   -4.5790 O   0  0  0  0  0  0  0  0  0  0  0  0
   48.9582   -1.6888   -6.0671 H   0  0  0  0  0  0  0  0  0  0  0  0
   49.0506   -2.7588   -7.5517 H   0  0  0  0  0  0  0  0  0  0  0  0
   54.7350   -4.7956   -9.4782 N   0  0  0  0  0  0  0  0  0  0  0  0
   54.7162   -5.8361   -9.3559 H   0  0  0  0  0  0  0  0  0  0  0  0
   55.8310   -4.1519  -10.1665 C   0  0  0  0  0  0  0  0  0  0  0  0
   57.1082   -4.7060   -9.7164 C   0  0  0  0  0  0  0  0  0  0  0  0
   57.4483   -4.8933   -8.3945 C   0  0  0  0  0  0  0  0  0  0  0  0
   58.6670   -5.4208   -8.0236 C   0  0  0  0  0  0  0  0  0  0  0  0
   59.5850   -5.7773   -8.9839 C   0  0  0  0  0  0  0  0  0  0  0  0
   61.1397   -6.4501   -8.5144 Cl  0  0  0  0  0  0  0  0  0  0  0  0
   59.2681   -5.5996  -10.3164 C   0  0  0  0  0  0  0  0  0  0  0  0
   58.0469   -5.0719  -10.6570 C   0  0  0  0  0  0  0  0  0  0  0  0
   55.5997   -4.2406  -11.6546 C   0  0  0  0  0  0  0  0  0  0  0  0
   56.6388   -3.6282  -13.7412 C   0  0  0  0  0  0  0  0  0  0  0  0
   56.2927   -3.2434  -12.4061 N   0  0  0  0  0  0  0  0  0  0  0  0
   55.7197   -2.3909  -12.4435 H   0  0  0  0  0  0  0  0  0  0  0  0
 27 28  1  0  0  0
 28 26  1  0  0  0
 26 18  1  0  0  0
 18 16  1  0  0  0
 16  1  1  0  0  0
  1  2  2  0  0  0
  2  3  1  0  0  0
  3  4  2  0  0  0
  4  5  1  0  0  0
  5  6  2  0  0  0
  6 11  1  0  0  0
 11 12  1  0  0  0
 11 13  2  0  0  0
  6  7  1  0  0  0
  7  8  2  0  0  0
  8  9  1  0  0  0
  9 10  2  0  0  0
 18 19  1  0  0  0
 19 20  2  0  0  0
 20 21  1  0  0  0
 21 22  2  0  0  0
 22 23  1  0  0  0
 22 24  1  0  0  0
 24 25  2  0  0  0
 10  1  1  0  0  0
 25 19  1  0  0  0
 10  5  1  0  0  0
 28 29  1  0  0  0
 16 17  1  0  0  0
 12 14  1  0  0  0
 12 15  1  0  0  0
M  END
> <minimizedAffinity>
-8.11573

> <CNNscore>
0.7400856614

> <CNNaffinity>
6.8523759842

> <CNN_VS>
5.0713453293

> <CNNaffinity_variance>
0.0381949432

$$$$
[H]c1nc(N([H])[C@@]([H])(c2c([H])c([H])c(Cl)c([H])c2[H])C([H])([H])N([H])C([H])([H])[H])c2nc([H])c([H])c(C(=O)N([H])[H])c2n1


 29 31  0  0  0  0  0  0  0  0999 V2000
   52.9148   -5.1168   -6.8983 C   0  0  0  0  0  0  0  0  0  0  0  0
   52.9808   -6.0593   -5.9407 N   0  0  0  0  0  0  0  0  0  0  0  0
   52.0594   -6.1106   -4.9400 C   0  0  0  0  0  0  0  0  0  0  0  0
   51.0432   -5.2182   -4.8688 N   0  0  0  0  0  0  0  0  0  0  0  0
   50.9305   -4.2645   -5.7911 C   0  0  0  0  0  0  0  0  0  0  0  0
   49.8953   -3.3551   -5.7199 C   0  0  0  0  0  0  0  0  0  0  0  0
   49.8447   -2.3983   -6.7096 C   0  0  0  0  0  0  0  0  0  0  0  0
   50.7865   -2.3654   -7.7107 C   0  0  0  0  0  0  0  0  0  0  0  0
   51.7782   -3.2662   -7.7469 N   0  0  0  0  0  0  0  0  0  0  0  0
   51.8775   -4.2153   -6.8156 C   0  0  0  0  0  0  0  0  0  0  0  0
   48.8876   -3.3784   -4.6659 C   0  0  0  0  0  0  0  0  0  0  0  0
   48.8408   -4.4658   -3.7782 N   0  0  0  0  0  0  0  0  0  0  0  0
   48.0501   -2.4386   -4.5304 O   0  0  0  0  0  0  0  0  0  0  0  0
   47.8788   -4.8157   -3.5082 H   0  0  0  0  0  0  0  0  0  0  0  0
   49.7071   -4.8939   -3.4147 H   0  0  0  0  0  0  0  0  0  0  0  0
   53.8838   -5.0786   -7.9380 N   0  0  0  0  0  0  0  0  0  0  0  0
   53.5276   -5.0095   -8.9209 H   0  0  0  0  0  0  0  0  0  0  0  0
   55.3028   -5.1322   -7.6679 C   0  0  0  0  0  0  0  0  0  0  0  0
   56.0620   -4.8426   -8.8847 C   0  0  0  0  0  0  0  0  0  0  0  0
   55.5476   -4.1848   -9.9805 C   0  0  0  0  0  0  0  0  0  0  0  0
   56.3072   -3.9362  -11.1039 C   0  0  0  0  0  0  0  0  0  0  0  0
   57.6188   -4.3478  -11.1542 C   0  0  0  0  0  0  0  0  0  0  0  0
   58.5902   -4.0325  -12.5849 Cl  0  0  0  0  0  0  0  0  0  0  0  0
   58.1584   -5.0093  -10.0684 C   0  0  0  0  0  0  0  0  0  0  0  0
   57.3784   -5.2435   -8.9626 C   0  0  0  0  0  0  0  0  0  0  0  0
   55.6182   -4.2272   -6.5029 C   0  0  0  0  0  0  0  0  0  0  0  0
   56.3884   -6.2917   -5.5265 C   0  0  0  0  0  0  0  0  0  0  0  0
   56.0135   -4.9251   -5.3213 N   0  0  0  0  0  0  0  0  0  0  0  0
   56.7982   -4.4270   -4.8825 H   0  0  0  0  0  0  0  0  0  0  0  0
 27 28  1  0  0  0
 28 26  1  0  0  0
 26 18  1  0  0  0
 18 16  1  0  0  0
 16  1  1  0  0  0
  1  2  2  0  0  0
  2  3  1  0  0  0
  3  4  2  0  0  0
  4  5  1  0  0  0
  5  6  2  0  0  0
  6 11  1  0  0  0
 11 12  1  0  0  0
 11 13  2  0  0  0
  6  7  1  0  0  0
  7  8  2  0  0  0
  8  9  1  0  0  0
  9 10  2  0  0  0
 18 19  1  0  0  0
 19 20  2  0  0  0
 20 21  1  0  0  0
 21 22  2  0  0  0
 22 23  1  0  0  0
 22 24  1  0  0  0
 24 25  2  0  0  0
 10  1  1  0  0  0
 25 19  1  0  0  0
 10  5  1  0  0  0
 28 29  1  0  0  0
 16 17  1  0  0  0
 12 14  1  0  0  0
 12 15  1  0  0  0
M  END
> <minimizedAffinity>
-9.03115

> <CNNscore>
0.6449661255

> <CNNaffinity>
7.0182280540

> <CNN_VS>
4.5265192986

> <CNNaffinity_variance>
0.3171335161

$$$$
[H]c1nc(N([H])[C@@]([H])(c2c([H])c([H])c(Cl)c([H])c2[H])C([H])([H])N([H])C([H])([H])[H])c2nc([H])c([H])c(C(=O)N([H])[H])c2n1


 29 31  0  0  0  0  0  0  0  0999 V2000
   53.8626   -4.3295   -7.9225 C   0  0  0  0  0  0  0  0  0  0  0  0
   53.8616   -3.2965   -8.7843 N   0  0  0  0  0  0  0  0  0  0  0  0
   52.7995   -2.4489   -8.8646 C   0  0  0  0  0  0  0  0  0  0  0  0
   51.7054   -2.6110   -8.0830 N   0  0  0  0  0  0  0  0  0  0  0  0
   51.6539   -3.6171   -7.2124 C   0  0  0  0  0  0  0  0  0  0  0  0
   50.5400   -3.7830   -6.4153 C   0  0  0  0  0  0  0  0  0  0  0  0
   50.5602   -4.8460   -5.5394 C   0  0  0  0  0  0  0  0  0  0  0  0
   51.6439   -5.6896   -5.4755 C   0  0  0  0  0  0  0  0  0  0  0  0
   52.7088   -5.4965   -6.2661 N   0  0  0  0  0  0  0  0  0  0  0  0
   52.7451   -4.4842   -7.1332 C   0  0  0  0  0  0  0  0  0  0  0  0
   49.3840   -2.8954   -6.4697 C   0  0  0  0  0  0  0  0  0  0  0  0
   48.8424   -2.5415   -7.7164 N   0  0  0  0  0  0  0  0  0  0  0  0
   48.8540   -2.4340   -5.4166 O   0  0  0  0  0  0  0  0  0  0  0  0
   48.5270   -1.5371   -7.8276 H   0  0  0  0  0  0  0  0  0  0  0  0
   48.7616   -3.2341   -8.4777 H   0  0  0  0  0  0  0  0  0  0  0  0
   54.9810   -5.2042   -7.8493 N   0  0  0  0  0  0  0  0  0  0  0  0
   54.9541   -6.0652   -8.4458 H   0  0  0  0  0  0  0  0  0  0  0  0
   56.1141   -4.9323   -6.9941 C   0  0  0  0  0  0  0  0  0  0  0  0
   55.9487   -5.6034   -5.7044 C   0  0  0  0  0  0  0  0  0  0  0  0
   55.8583   -6.9692   -5.5479 C   0  0  0  0  0  0  0  0  0  0  0  0
   55.7034   -7.5518   -4.3080 C   0  0  0  0  0  0  0  0  0  0  0  0
   55.6346   -6.7662   -3.1809 C   0  0  0  0  0  0  0  0  0  0  0  0
   55.4372   -7.5057   -1.5984 Cl  0  0  0  0  0  0  0  0  0  0  0  0
   55.7229   -5.3940   -3.3109 C   0  0  0  0  0  0  0  0  0  0  0  0
   55.8768   -4.8410   -4.5584 C   0  0  0  0  0  0  0  0  0  0  0  0
   57.3831   -5.2893   -7.7274 C   0  0  0  0  0  0  0  0  0  0  0  0
   58.3750   -5.5461   -9.9089 C   0  0  0  0  0  0  0  0  0  0  0  0
   57.3831   -4.9018   -9.1019 N   0  0  0  0  0  0  0  0  0  0  0  0
   56.4555   -5.0867   -9.5040 H   0  0  0  0  0  0  0  0  0  0  0  0
 27 28  1  0  0  0
 28 26  1  0  0  0
 26 18  1  0  0  0
 18 16  1  0  0  0
 16  1  1  0  0  0
  1  2  2  0  0  0
  2  3  1  0  0  0
  3  4  2  0  0  0
  4  5  1  0  0  0
  5  6  2  0  0  0
  6 11  1  0  0  0
 11 12  1  0  0  0
 11 13  2  0  0  0
  6  7  1  0  0  0
  7  8  2  0  0  0
  8  9  1  0  0  0
  9 10  2  0  0  0
 18 19  1  0  0  0
 19 20  2  0  0  0
 20 21  1  0  0  0
 21 22  2  0  0  0
 22 23  1  0  0  0
 22 24  1  0  0  0
 24 25  2  0  0  0
 10  1  1  0  0  0
 25 19  1  0  0  0
 10  5  1  0  0  0
 28 29  1  0  0  0
 16 17  1  0  0  0
 12 14  1  0  0  0
 12 15  1  0  0  0
M  END
> <minimizedAffinity>
-8.02241

> <CNNscore>
0.6073603034

> <CNNaffinity>
6.9602203369

> <CNN_VS>
4.2273616791

> <CNNaffinity_variance>
0.1187555343

$$$$
[H]c1nc(N([H])[C@@]([H])(c2c([H])c([H])c(Cl)c([H])c2[H])C([H])([H])N([H])C([H])([H])[H])c2nc([H])c([H])c(C(=O)N([H])[H])c2n1


 29 31  0  0  0  0  0  0  0  0999 V2000
   55.6437   -6.1424   -6.1063 C   0  0  0  0  0  0  0  0  0  0  0  0
   56.8017   -5.7959   -6.6968 N   0  0  0  0  0  0  0  0  0  0  0  0
   56.8381   -4.8424   -7.6675 C   0  0  0  0  0  0  0  0  0  0  0  0
   55.7142   -4.2066   -8.0760 N   0  0  0  0  0  0  0  0  0  0  0  0
   54.5410   -4.5107   -7.5246 C   0  0  0  0  0  0  0  0  0  0  0  0
   53.3954   -3.8633   -7.9395 C   0  0  0  0  0  0  0  0  0  0  0  0
   52.2201   -4.2317   -7.3227 C   0  0  0  0  0  0  0  0  0  0  0  0
   52.2070   -5.1978   -6.3446 C   0  0  0  0  0  0  0  0  0  0  0  0
   53.3407   -5.8050   -5.9675 N   0  0  0  0  0  0  0  0  0  0  0  0
   54.5079   -5.4893   -6.5296 C   0  0  0  0  0  0  0  0  0  0  0  0
   53.3934   -2.8351   -8.9738 C   0  0  0  0  0  0  0  0  0  0  0  0
   54.2989   -1.7650   -8.8863 N   0  0  0  0  0  0  0  0  0  0  0  0
   52.5924   -2.8833   -9.9530 O   0  0  0  0  0  0  0  0  0  0  0  0
   53.9307   -0.8099   -9.1565 H   0  0  0  0  0  0  0  0  0  0  0  0
   55.2711   -1.9146   -8.5729 H   0  0  0  0  0  0  0  0  0  0  0  0
   55.6233   -7.1387   -5.0922 N   0  0  0  0  0  0  0  0  0  0  0  0
   55.3658   -8.1117   -5.3834 H   0  0  0  0  0  0  0  0  0  0  0  0
   55.9412   -6.8390   -3.7144 C   0  0  0  0  0  0  0  0  0  0  0  0
   57.1207   -7.5938   -3.2902 C   0  0  0  0  0  0  0  0  0  0  0  0
   58.3720   -7.4543   -3.8497 C   0  0  0  0  0  0  0  0  0  0  0  0
   59.4521   -8.1907   -3.4117 C   0  0  0  0  0  0  0  0  0  0  0  0
   59.2993   -9.0967   -2.3880 C   0  0  0  0  0  0  0  0  0  0  0  0
   60.6743  -10.0374   -1.8271 Cl  0  0  0  0  0  0  0  0  0  0  0  0
   58.0549   -9.2552   -1.8101 C   0  0  0  0  0  0  0  0  0  0  0  0
   56.9967   -8.5084   -2.2666 C   0  0  0  0  0  0  0  0  0  0  0  0
   56.0616   -5.3444   -3.5492 C   0  0  0  0  0  0  0  0  0  0  0  0
   53.9826   -5.5884   -2.3547 C   0  0  0  0  0  0  0  0  0  0  0  0
   55.1485   -4.7939   -2.5992 N   0  0  0  0  0  0  0  0  0  0  0  0
   55.6396   -4.6411   -1.7093 H   0  0  0  0  0  0  0  0  0  0  0  0
 27 28  1  0  0  0
 28 26  1  0  0  0
 26 18  1  0  0  0
 18 16  1  0  0  0
 16  1  1  0  0  0
  1  2  2  0  0  0
  2  3  1  0  0  0
  3  4  2  0  0  0
  4  5  1  0  0  0
  5  6  2  0  0  0
  6 11  1  0  0  0
 11 12  1  0  0  0
 11 13  2  0  0  0
  6  7  1  0  0  0
  7  8  2  0  0  0
  8  9  1  0  0  0
  9 10  2  0  0  0
 18 19  1  0  0  0
 19 20  2  0  0  0
 20 21  1  0  0  0
 21 22  2  0  0  0
 22 23  1  0  0  0
 22 24  1  0  0  0
 24 25  2  0  0  0
 10  1  1  0  0  0
 25 19  1  0  0  0
 10  5  1  0  0  0
 28 29  1  0  0  0
 16 17  1  0  0  0
 12 14  1  0  0  0
 12 15  1  0  0  0
M  END
> <minimizedAffinity>
-7.26170

> <CNNscore>
0.5210894942

> <CNNaffinity>
6.2561478615

> <CNN_VS>
3.2600128651

> <CNNaffinity_variance>
0.1940014958

$$$$
[H]c1nc(N([H])[C@@]([H])(c2c([H])c([H])c(Cl)c([H])c2[H])C([H])([H])N([H])C([H])([H])[H])c2nc([H])c([H])c(C(=O)N([H])[H])c2n1


 29 31  0  0  0  0  0  0  0  0999 V2000
   53.0733   -5.4913   -6.4055 C   0  0  0  0  0  0  0  0  0  0  0  0
   53.1495   -6.2627   -5.3061 N   0  0  0  0  0  0  0  0  0  0  0  0
   52.2186   -6.1712   -4.3171 C   0  0  0  0  0  0  0  0  0  0  0  0
   51.1822   -5.3032   -4.4003 N   0  0  0  0  0  0  0  0  0  0  0  0
   51.0587   -4.5162   -5.4672 C   0  0  0  0  0  0  0  0  0  0  0  0
   50.0031   -3.6319   -5.5533 C   0  0  0  0  0  0  0  0  0  0  0  0
   49.9424   -2.8512   -6.6867 C   0  0  0  0  0  0  0  0  0  0  0  0
   50.8941   -2.9605   -7.6729 C   0  0  0  0  0  0  0  0  0  0  0  0
   51.9056   -3.8316   -7.5539 N   0  0  0  0  0  0  0  0  0  0  0  0
   52.0156   -4.6130   -6.4790 C   0  0  0  0  0  0  0  0  0  0  0  0
   48.9847   -3.5061   -4.5170 C   0  0  0  0  0  0  0  0  0  0  0  0
   48.7830   -4.5629   -3.6142 N   0  0  0  0  0  0  0  0  0  0  0  0
   48.2746   -2.4633   -4.4103 O   0  0  0  0  0  0  0  0  0  0  0  0
   47.7796   -4.7802   -3.3560 H   0  0  0  0  0  0  0  0  0  0  0  0
   49.5804   -5.0936   -3.2291 H   0  0  0  0  0  0  0  0  0  0  0  0
   54.0525   -5.6010   -7.4304 N   0  0  0  0  0  0  0  0  0  0  0  0
   53.7060   -5.7365   -8.4099 H   0  0  0  0  0  0  0  0  0  0  0  0
   55.4688   -5.5310   -7.1503 C   0  0  0  0  0  0  0  0  0  0  0  0
   56.2076   -5.1658   -8.3593 C   0  0  0  0  0  0  0  0  0  0  0  0
   57.5209   -5.5074   -8.5974 C   0  0  0  0  0  0  0  0  0  0  0  0
   58.1713   -5.1379   -9.7555 C   0  0  0  0  0  0  0  0  0  0  0  0
   57.5096   -4.4070  -10.7148 C   0  0  0  0  0  0  0  0  0  0  0  0
   58.3358   -3.9344  -12.1926 Cl  0  0  0  0  0  0  0  0  0  0  0  0
   56.1922   -4.0521  -10.5001 C   0  0  0  0  0  0  0  0  0  0  0  0
   55.5694   -4.4335   -9.3372 C   0  0  0  0  0  0  0  0  0  0  0  0
   55.6952   -4.6111   -5.9764 C   0  0  0  0  0  0  0  0  0  0  0  0
   55.9004   -4.5777   -3.5752 C   0  0  0  0  0  0  0  0  0  0  0  0
   56.1468   -5.2802   -4.7983 N   0  0  0  0  0  0  0  0  0  0  0  0
   55.7033   -6.2059   -4.7457 H   0  0  0  0  0  0  0  0  0  0  0  0
 27 28  1  0  0  0
 28 26  1  0  0  0
 26 18  1  0  0  0
 18 16  1  0  0  0
 16  1  1  0  0  0
  1  2  2  0  0  0
  2  3  1  0  0  0
  3  4  2  0  0  0
  4  5  1  0  0  0
  5  6  2  0  0  0
  6 11  1  0  0  0
 11 12  1  0  0  0
 11 13  2  0  0  0
  6  7  1  0  0  0
  7  8  2  0  0  0
  8  9  1  0  0  0
  9 10  2  0  0  0
 18 19  1  0  0  0
 19 20  2  0  0  0
 20 21  1  0  0  0
 21 22  2  0  0  0
 22 23  1  0  0  0
 22 24  1  0  0  0
 24 25  2  0  0  0
 10  1  1  0  0  0
 25 19  1  0  0  0
 10  5  1  0  0  0
 28 29  1  0  0  0
 16 17  1  0  0  0
 12 14  1  0  0  0
 12 15  1  0  0  0
M  END
> <minimizedAffinity>
-8.76829

> <CNNscore>
0.4693323374

> <CNNaffinity>
6.8889007568

> <CNN_VS>
3.2331838608

> <CNNaffinity_variance>
0.2978221774

$$$$
[H]c1nc(N([H])[C@@]([H])(c2c([H])c([H])c(Cl)c([H])c2[H])C([H])([H])N([H])C([H])([H])[H])c2nc([H])c([H])c(C(=O)N([H])[H])c2n1


 29 31  0  0  0  0  0  0  0  0999 V2000
   53.6769   -6.2840   -5.3957 C   0  0  0  0  0  0  0  0  0  0  0  0
   52.3875   -6.2094   -5.0195 N   0  0  0  0  0  0  0  0  0  0  0  0
   51.5095   -5.4016   -5.6749 C   0  0  0  0  0  0  0  0  0  0  0  0
   51.8975   -4.6437   -6.7282 N   0  0  0  0  0  0  0  0  0  0  0  0
   53.1624   -4.6796   -7.1425 C   0  0  0  0  0  0  0  0  0  0  0  0
   53.5588   -3.9083   -8.2156 C   0  0  0  0  0  0  0  0  0  0  0  0
   54.8826   -3.9988   -8.5856 C   0  0  0  0  0  0  0  0  0  0  0  0
   55.7518   -4.8213   -7.9088 C   0  0  0  0  0  0  0  0  0  0  0  0
   55.3299   -5.5563   -6.8705 N   0  0  0  0  0  0  0  0  0  0  0  0
   54.0597   -5.5091   -6.4675 C   0  0  0  0  0  0  0  0  0  0  0  0
   52.6484   -3.0329   -8.9450 C   0  0  0  0  0  0  0  0  0  0  0  0
   51.7327   -2.2407   -8.2333 N   0  0  0  0  0  0  0  0  0  0  0  0
   52.6630   -2.9690  -10.2093 O   0  0  0  0  0  0  0  0  0  0  0  0
   50.7618   -2.1525   -8.6462 H   0  0  0  0  0  0  0  0  0  0  0  0
   52.0040   -1.7736   -7.3535 H   0  0  0  0  0  0  0  0  0  0  0  0
   54.5806   -7.1345   -4.7019 N   0  0  0  0  0  0  0  0  0  0  0  0
   54.8923   -8.0047   -5.1954 H   0  0  0  0  0  0  0  0  0  0  0  0
   55.0581   -6.8271   -3.3728 C   0  0  0  0  0  0  0  0  0  0  0  0
   56.3765   -7.4239   -3.1568 C   0  0  0  0  0  0  0  0  0  0  0  0
   56.6643   -8.3242   -2.1543 C   0  0  0  0  0  0  0  0  0  0  0  0
   57.9253   -8.8581   -1.9946 C   0  0  0  0  0  0  0  0  0  0  0  0
   58.9407   -8.4959   -2.8490 C   0  0  0  0  0  0  0  0  0  0  0  0
   60.5497   -9.1747   -2.6482 Cl  0  0  0  0  0  0  0  0  0  0  0  0
   58.6778   -7.5950   -3.8624 C   0  0  0  0  0  0  0  0  0  0  0  0
   57.4125   -7.0790   -3.9979 C   0  0  0  0  0  0  0  0  0  0  0  0
   55.0045   -5.3343   -3.1618 C   0  0  0  0  0  0  0  0  0  0  0  0
   53.3281   -5.0331   -1.4566 C   0  0  0  0  0  0  0  0  0  0  0  0
   54.7114   -4.9522   -1.8174 N   0  0  0  0  0  0  0  0  0  0  0  0
   55.2580   -5.5384   -1.1739 H   0  0  0  0  0  0  0  0  0  0  0  0
 27 28  1  0  0  0
 28 26  1  0  0  0
 26 18  1  0  0  0
 18 16  1  0  0  0
 16  1  1  0  0  0
  1  2  2  0  0  0
  2  3  1  0  0  0
  3  4  2  0  0  0
  4  5  1  0  0  0
  5  6  2  0  0  0
  6 11  1  0  0  0
 11 12  1  0  0  0
 11 13  2  0  0  0
  6  7  1  0  0  0
  7  8  2  0  0  0
  8  9  1  0  0  0
  9 10  2  0  0  0
 18 19  1  0  0  0
 19 20  2  0  0  0
 20 21  1  0  0  0
 21 22  2  0  0  0
 22 23  1  0  0  0
 22 24  1  0  0  0
 24 25  2  0  0  0
 10  1  1  0  0  0
 25 19  1  0  0  0
 10  5  1  0  0  0
 28 29  1  0  0  0
 16 17  1  0  0  0
 12 14  1  0  0  0
 12 15  1  0  0  0
M  END
> <minimizedAffinity>
-6.97737

> <CNNscore>
0.4036859274

> <CNNaffinity>
6.4443411827

> <CNN_VS>
2.6014897823

> <CNNaffinity_variance>
0.3008063734

$$$$
[H]c1nc(N([H])[C@@]([H])(c2c([H])c([H])c(Cl)c([H])c2[H])C([H])([H])N([H])C([H])([H])[H])c2nc([H])c([H])c(C(=O)N([H])[H])c2n1


 29 31  0  0  0  0  0  0  0  0999 V2000
   52.9161   -4.9742   -7.2303 C   0  0  0  0  0  0  0  0  0  0  0  0
   52.5228   -3.9471   -8.0049 N   0  0  0  0  0  0  0  0  0  0  0  0
   51.4550   -3.1760   -7.6611 C   0  0  0  0  0  0  0  0  0  0  0  0
   50.7487   -3.4110   -6.5297 N   0  0  0  0  0  0  0  0  0  0  0  0
   51.0953   -4.4149   -5.7266 C   0  0  0  0  0  0  0  0  0  0  0  0
   50.3768   -4.6550   -4.5733 C   0  0  0  0  0  0  0  0  0  0  0  0
   50.7953   -5.7106   -3.7936 C   0  0  0  0  0  0  0  0  0  0  0  0
   51.8766   -6.4763   -4.1606 C   0  0  0  0  0  0  0  0  0  0  0  0
   52.5503   -6.2125   -5.2888 N   0  0  0  0  0  0  0  0  0  0  0  0
   52.1907   -5.2034   -6.0828 C   0  0  0  0  0  0  0  0  0  0  0  0
   49.2293   -3.8505   -4.1694 C   0  0  0  0  0  0  0  0  0  0  0  0
   48.1721   -4.4562   -3.4707 N   0  0  0  0  0  0  0  0  0  0  0  0
   49.1621   -2.6142   -4.4338 O   0  0  0  0  0  0  0  0  0  0  0  0
   47.1935   -4.1505   -3.7347 H   0  0  0  0  0  0  0  0  0  0  0  0
   48.3526   -5.1624   -2.7396 H   0  0  0  0  0  0  0  0  0  0  0  0
   54.0350   -5.7684   -7.6025 N   0  0  0  0  0  0  0  0  0  0  0  0
   53.8410   -6.6410   -8.1492 H   0  0  0  0  0  0  0  0  0  0  0  0
   55.3882   -5.4025   -7.2498 C   0  0  0  0  0  0  0  0  0  0  0  0
   56.1574   -5.0836   -8.4530 C   0  0  0  0  0  0  0  0  0  0  0  0
   57.4889   -5.3926   -8.6255 C   0  0  0  0  0  0  0  0  0  0  0  0
   58.1679   -5.0696   -9.7811 C   0  0  0  0  0  0  0  0  0  0  0  0
   57.5174   -4.4201  -10.8044 C   0  0  0  0  0  0  0  0  0  0  0  0
   58.3801   -4.0068  -12.2792 Cl  0  0  0  0  0  0  0  0  0  0  0  0
   56.1822   -4.0993  -10.6561 C   0  0  0  0  0  0  0  0  0  0  0  0
   55.5309   -4.4330   -9.4941 C   0  0  0  0  0  0  0  0  0  0  0  0
   55.3493   -4.2999   -6.2210 C   0  0  0  0  0  0  0  0  0  0  0  0
   56.2738   -5.9696   -4.7493 C   0  0  0  0  0  0  0  0  0  0  0  0
   55.5237   -4.7569   -4.8793 N   0  0  0  0  0  0  0  0  0  0  0  0
   55.9840   -4.0204   -4.3297 H   0  0  0  0  0  0  0  0  0  0  0  0
 27 28  1  0  0  0
 28 26  1  0  0  0
 26 18  1  0  0  0
 18 16  1  0  0  0
 16  1  1  0  0  0
  1  2  2  0  0  0
  2  3  1  0  0  0
  3  4  2  0  0  0
  4  5  1  0  0  0
  5  6  2  0  0  0
  6 11  1  0  0  0
 11 12  1  0  0  0
 11 13  2  0  0  0
  6  7  1  0  0  0
  7  8  2  0  0  0
  8  9  1  0  0  0
  9 10  2  0  0  0
 18 19  1  0  0  0
 19 20  2  0  0  0
 20 21  1  0  0  0
 21 22  2  0  0  0
 22 23  1  0  0  0
 22 24  1  0  0  0
 24 25  2  0  0  0
 10  1  1  0  0  0
 25 19  1  0  0  0
 10  5  1  0  0  0
 28 29  1  0  0  0
 16 17  1  0  0  0
 12 14  1  0  0  0
 12 15  1  0  0  0
M  END
> <minimizedAffinity>
-7.76526

> <CNNscore>
0.3981740773

> <CNNaffinity>
6.7621641159

> <CNN_VS>
2.6925184727

> <CNNaffinity_variance>
0.4105381370

$$$$
[H]Oc1c(OC([H])([H])[H])c(OC([H])([H])[H])c2c3c1-c1c([H])c([H])c([H])c([H])c1C([H])([H])[C@@]3([H])N([H])C([H])([H])C2([H])[H]


 24 27  0  0  0  0  0  0  0  0999 V2000
   52.1620   -4.1097   -7.5077 C   0  0  0  0  0  0  0  0  0  0  0  0
   53.2116   -4.0614   -8.4150 C   0  0  0  0  0  0  0  0  0  0  0  0
   52.9355   -3.4220   -9.5936 O   0  0  0  0  0  0  0  0  0  0  0  0
   54.4077   -4.6437   -8.0616 C   0  0  0  0  0  0  0  0  0  0  0  0
   54.5824   -5.2653   -6.8453 C   0  0  0  0  0  0  0  0  0  0  0  0
   53.5063   -5.2912   -5.9641 C   0  0  0  0  0  0  0  0  0  0  0  0
   52.3002   -4.7243   -6.2746 C   0  0  0  0  0  0  0  0  0  0  0  0
   53.7026   -5.9609   -4.6666 C   0  0  0  0  0  0  0  0  0  0  0  0
   55.0768   -5.8690   -4.1254 C   0  0  0  0  0  0  0  0  0  0  0  0
   56.1298   -5.8172   -5.0488 N   0  0  0  0  0  0  0  0  0  0  0  0
   55.7956   -5.9367   -6.4426 C   0  0  0  0  0  0  0  0  0  0  0  0
   57.0002   -5.6193   -7.2315 C   0  0  0  0  0  0  0  0  0  0  0  0
   56.7711   -5.0843   -8.5765 C   0  0  0  0  0  0  0  0  0  0  0  0
   57.8489   -5.0589   -9.4803 C   0  0  0  0  0  0  0  0  0  0  0  0
   57.7341   -4.5285  -10.7290 C   0  0  0  0  0  0  0  0  0  0  0  0
   56.5199   -4.0146  -11.0792 C   0  0  0  0  0  0  0  0  0  0  0  0
   55.4056   -4.0089  -10.2286 C   0  0  0  0  0  0  0  0  0  0  0  0
   55.5457   -4.5483   -8.9798 C   0  0  0  0  0  0  0  0  0  0  0  0
   52.0641   -3.0026   -9.8384 H   0  0  0  0  0  0  0  0  0  0  0  0
   56.8832   -6.5353   -4.8588 H   0  0  0  0  0  0  0  0  0  0  0  0
   50.4419   -2.3503   -7.2964 C   0  0  0  0  0  0  0  0  0  0  0  0
   50.9521   -3.5333   -7.8381 O   0  0  0  0  0  0  0  0  0  0  0  0
   51.2538   -4.7739   -5.3649 O   0  0  0  0  0  0  0  0  0  0  0  0
   50.2833   -5.7906   -5.4597 C   0  0  0  0  0  0  0  0  0  0  0  0
 21 22  1  0  0  0
 22  1  1  0  0  0
  1  2  2  0  0  0
  2  3  1  0  0  0
  2  4  1  0  0  0
  4  5  2  0  0  0
  5  6  1  0  0  0
  6  7  2  0  0  0
  7 23  1  0  0  0
 23 24  1  0  0  0
  6  8  1  0  0  0
  8  9  1  0  0  0
  9 10  1  0  0  0
 10 11  1  0  0  0
 11 12  1  0  0  0
 12 13  1  0  0  0
 13 14  2  0  0  0
 14 15  1  0  0  0
 15 16  2  0  0  0
 16 17  1  0  0  0
 17 18  2  0  0  0
  7  1  1  0  0  0
 18 13  1  0  0  0
 18  4  1  0  0  0
 11  5  1  0  0  0
  3 19  1  0  0  0
 10 20  1  0  0  0
M  END
> <minimizedAffinity>
-9.23264

> <CNNscore>
0.7321667671

> <CNNaffinity>
6.3125877380

> <CNN_VS>
4.6218671799

> <CNNaffinity_variance>
0.2316472083

$$$$
[H]Oc1c(OC([H])([H])[H])c(OC([H])([H])[H])c2c3c1-c1c([H])c([H])c([H])c([H])c1C([H])([H])[C@@]3([H])N([H])C([H])([H])C2([H])[H]


 24 27  0  0  0  0  0  0  0  0999 V2000
   51.2039   -4.3769   -6.7471 C   0  0  0  0  0  0  0  0  0  0  0  0
   52.3528   -4.2544   -7.5165 C   0  0  0  0  0  0  0  0  0  0  0  0
   52.2158   -3.5077   -8.6558 O   0  0  0  0  0  0  0  0  0  0  0  0
   53.5006   -4.8764   -7.0800 C   0  0  0  0  0  0  0  0  0  0  0  0
   53.5325   -5.6080   -5.9139 C   0  0  0  0  0  0  0  0  0  0  0  0
   52.3603   -5.7056   -5.1713 C   0  0  0  0  0  0  0  0  0  0  0  0
   51.1976   -5.1029   -5.5680 C   0  0  0  0  0  0  0  0  0  0  0  0
   52.4042   -6.4928   -3.9267 C   0  0  0  0  0  0  0  0  0  0  0  0
   53.7049   -6.4619   -3.2216 C   0  0  0  0  0  0  0  0  0  0  0  0
   54.8591   -6.3345   -4.0063 N   0  0  0  0  0  0  0  0  0  0  0  0
   54.6917   -6.3233   -5.4347 C   0  0  0  0  0  0  0  0  0  0  0  0
   55.9799   -5.9450   -6.0442 C   0  0  0  0  0  0  0  0  0  0  0  0
   55.9093   -5.2874   -7.3520 C   0  0  0  0  0  0  0  0  0  0  0  0
   57.0859   -5.1883   -8.1167 C   0  0  0  0  0  0  0  0  0  0  0  0
   57.1176   -4.5450   -9.3162 C   0  0  0  0  0  0  0  0  0  0  0  0
   55.9517   -3.9913   -9.7580 C   0  0  0  0  0  0  0  0  0  0  0  0
   54.7450   -4.0543   -9.0473 C   0  0  0  0  0  0  0  0  0  0  0  0
   54.7385   -4.7067   -7.8455 C   0  0  0  0  0  0  0  0  0  0  0  0
   51.3781   -3.0606   -8.9616 H   0  0  0  0  0  0  0  0  0  0  0  0
   55.5868   -7.0731   -3.7958 H   0  0  0  0  0  0  0  0  0  0  0  0
   49.6508   -2.4593   -6.8428 C   0  0  0  0  0  0  0  0  0  0  0  0
   50.0398   -3.7628   -7.1631 O   0  0  0  0  0  0  0  0  0  0  0  0
   50.0515   -5.2268   -4.7959 O   0  0  0  0  0  0  0  0  0  0  0  0
   49.7818   -4.2916   -3.7774 C   0  0  0  0  0  0  0  0  0  0  0  0
 21 22  1  0  0  0
 22  1  1  0  0  0
  1  2  2  0  0  0
  2  3  1  0  0  0
  2  4  1  0  0  0
  4  5  2  0  0  0
  5  6  1  0  0  0
  6  7  2  0  0  0
  7 23  1  0  0  0
 23 24  1  0  0  0
  6  8  1  0  0  0
  8  9  1  0  0  0
  9 10  1  0  0  0
 10 11  1  0  0  0
 11 12  1  0  0  0
 12 13  1  0  0  0
 13 14  2  0  0  0
 14 15  1  0  0  0
 15 16  2  0  0  0
 16 17  1  0  0  0
 17 18  2  0  0  0
  7  1  1  0  0  0
 18 13  1  0  0  0
 18  4  1  0  0  0
 11  5  1  0  0  0
  3 19  1  0  0  0
 10 20  1  0  0  0
M  END
> <minimizedAffinity>
-9.29334

> <CNNscore>
0.6547019482

> <CNNaffinity>
6.2745051384

> <CNN_VS>
4.1079306602

> <CNNaffinity_variance>
0.1588566005

$$$$
[H]Oc1c(OC([H])([H])[H])c(OC([H])([H])[H])c2c3c1-c1c([H])c([H])c([H])c([H])c1C([H])([H])[C@@]3([H])N([H])C([H])([H])C2([H])[H]


 24 27  0  0  0  0  0  0  0  0999 V2000
   63.9719   -8.0647   -9.2495 C   0  0  0  0  0  0  0  0  0  0  0  0
   64.3156   -6.8171   -8.7472 C   0  0  0  0  0  0  0  0  0  0  0  0
   64.5540   -5.8535   -9.6901 O   0  0  0  0  0  0  0  0  0  0  0  0
   64.3846   -6.6592   -7.3816 C   0  0  0  0  0  0  0  0  0  0  0  0
   64.1250   -7.6979   -6.5156 C   0  0  0  0  0  0  0  0  0  0  0  0
   63.7832   -8.9320   -7.0591 C   0  0  0  0  0  0  0  0  0  0  0  0
   63.7023   -9.1326   -8.4103 C   0  0  0  0  0  0  0  0  0  0  0  0
   63.5099  -10.0374   -6.1242 C   0  0  0  0  0  0  0  0  0  0  0  0
   62.9081   -9.6238   -4.8372 C   0  0  0  0  0  0  0  0  0  0  0  0
   63.2581   -8.3613   -4.3396 N   0  0  0  0  0  0  0  0  0  0  0  0
   64.2324   -7.6043   -5.0787 C   0  0  0  0  0  0  0  0  0  0  0  0
   64.2699   -6.2391   -4.5228 C   0  0  0  0  0  0  0  0  0  0  0  0
   64.6827   -5.1761   -5.4434 C   0  0  0  0  0  0  0  0  0  0  0  0
   65.0382   -3.9253   -4.9067 C   0  0  0  0  0  0  0  0  0  0  0  0
   65.3800   -2.8697   -5.6957 C   0  0  0  0  0  0  0  0  0  0  0  0
   65.3658   -3.0694   -7.0452 C   0  0  0  0  0  0  0  0  0  0  0  0
   65.0230   -4.2890   -7.6452 C   0  0  0  0  0  0  0  0  0  0  0  0
   64.6843   -5.3346   -6.8313 C   0  0  0  0  0  0  0  0  0  0  0  0
   64.4999   -5.9797  -10.6781 H   0  0  0  0  0  0  0  0  0  0  0  0
   63.5983   -8.3904   -3.3382 H   0  0  0  0  0  0  0  0  0  0  0  0
   62.7886   -7.9508  -11.4141 C   0  0  0  0  0  0  0  0  0  0  0  0
   63.8959   -8.2491  -10.6154 O   0  0  0  0  0  0  0  0  0  0  0  0
   63.3576  -10.3808   -8.9085 O   0  0  0  0  0  0  0  0  0  0  0  0
   62.0034  -10.7083   -9.1174 C   0  0  0  0  0  0  0  0  0  0  0  0
 21 22  1  0  0  0
 22  1  1  0  0  0
  1  2  2  0  0  0
  2  3  1  0  0  0
  2  4  1  0  0  0
  4  5  2  0  0  0
  5  6  1  0  0  0
  6  7  2  0  0  0
  7 23  1  0  0  0
 23 24  1  0  0  0
  6  8  1  0  0  0
  8  9  1  0  0  0
  9 10  1  0  0  0
 10 11  1  0  0  0
 11 12  1  0  0  0
 12 13  1  0  0  0
 13 14  2  0  0  0
 14 15  1  0  0  0
 15 16  2  0  0  0
 16 17  1  0  0  0
 17 18  2  0  0  0
  7  1  1  0  0  0
 18 13  1  0  0  0
 18  4  1  0  0  0
 11  5  1  0  0  0
  3 19  1  0  0  0
 10 20  1  0  0  0
M  END
> <minimizedAffinity>
-3.40377

> <CNNscore>
0.5934066772

> <CNNaffinity>
3.9014453888

> <CNN_VS>
2.3151438236

> <CNNaffinity_variance>
0.0990720391

$$$$
[H]Oc1c(OC([H])([H])[H])c(OC([H])([H])[H])c2c3c1-c1c([H])c([H])c([H])c([H])c1C([H])([H])[C@@]3([H])N([H])C([H])([H])C2([H])[H]


 24 27  0  0  0  0  0  0  0  0999 V2000
   55.0641   -4.0398   -9.0374 C   0  0  0  0  0  0  0  0  0  0  0  0
   53.7981   -3.5957   -8.6810 C   0  0  0  0  0  0  0  0  0  0  0  0
   53.2434   -2.6731   -9.5268 O   0  0  0  0  0  0  0  0  0  0  0  0
   53.2239   -4.1073   -7.5394 C   0  0  0  0  0  0  0  0  0  0  0  0
   53.8698   -5.0359   -6.7540 C   0  0  0  0  0  0  0  0  0  0  0  0
   55.1367   -5.4556   -7.1463 C   0  0  0  0  0  0  0  0  0  0  0  0
   55.7441   -4.9736   -8.2738 C   0  0  0  0  0  0  0  0  0  0  0  0
   55.8203   -6.4472   -6.2979 C   0  0  0  0  0  0  0  0  0  0  0  0
   54.9199   -7.4062   -5.6201 C   0  0  0  0  0  0  0  0  0  0  0  0
   53.6426   -6.9501   -5.2672 N   0  0  0  0  0  0  0  0  0  0  0  0
   53.3389   -5.5673   -5.5208 C   0  0  0  0  0  0  0  0  0  0  0  0
   51.8946   -5.3676   -5.3019 C   0  0  0  0  0  0  0  0  0  0  0  0
   51.2694   -4.2787   -6.0577 C   0  0  0  0  0  0  0  0  0  0  0  0
   49.9913   -3.8393   -5.6671 C   0  0  0  0  0  0  0  0  0  0  0  0
   49.3189   -2.8716   -6.3489 C   0  0  0  0  0  0  0  0  0  0  0  0
   49.9361   -2.3342   -7.4404 C   0  0  0  0  0  0  0  0  0  0  0  0
   51.2076   -2.7248   -7.8830 C   0  0  0  0  0  0  0  0  0  0  0  0
   51.8633   -3.6980   -7.1809 C   0  0  0  0  0  0  0  0  0  0  0  0
   53.6692   -2.3101  -10.3526 H   0  0  0  0  0  0  0  0  0  0  0  0
   53.4053   -7.1274   -4.2515 H   0  0  0  0  0  0  0  0  0  0  0  0
   55.9177   -4.2692  -11.3433 C   0  0  0  0  0  0  0  0  0  0  0  0
   55.6619   -3.5420  -10.1776 O   0  0  0  0  0  0  0  0  0  0  0  0
   57.0092   -5.4205   -8.6273 O   0  0  0  0  0  0  0  0  0  0  0  0
   58.1518   -4.7156   -8.2004 C   0  0  0  0  0  0  0  0  0  0  0  0
 21 22  1  0  0  0
 22  1  1  0  0  0
  1  2  2  0  0  0
  2  3  1  0  0  0
  2  4  1  0  0  0
  4  5  2  0  0  0
  5  6  1  0  0  0
  6  7  2  0  0  0
  7 23  1  0  0  0
 23 24  1  0  0  0
  6  8  1  0  0  0
  8  9  1  0  0  0
  9 10  1  0  0  0
 10 11  1  0  0  0
 11 12  1  0  0  0
 12 13  1  0  0  0
 13 14  2  0  0  0
 14 15  1  0  0  0
 15 16  2  0  0  0
 16 17  1  0  0  0
 17 18  2  0  0  0
  7  1  1  0  0  0
 18 13  1  0  0  0
 18  4  1  0  0  0
 11  5  1  0  0  0
  3 19  1  0  0  0
 10 20  1  0  0  0
M  END
> <minimizedAffinity>
-9.80362

> <CNNscore>
0.5112915635

> <CNNaffinity>
6.2125310898

> <CNN_VS>
3.1764147282

> <CNNaffinity_variance>
0.4472243786

$$$$
[H]Oc1c(OC([H])([H])[H])c(OC([H])([H])[H])c2c3c1-c1c([H])c([H])c([H])c([H])c1C([H])([H])[C@@]3([H])N([H])C([H])([H])C2([H])[H]


 24 27  0  0  0  0  0  0  0  0999 V2000
   58.4055   -5.4557   -8.4334 C   0  0  0  0  0  0  0  0  0  0  0  0
   58.3881   -5.1150   -9.7790 C   0  0  0  0  0  0  0  0  0  0  0  0
   59.5495   -5.3649  -10.4596 O   0  0  0  0  0  0  0  0  0  0  0  0
   57.2362   -4.5709  -10.3002 C   0  0  0  0  0  0  0  0  0  0  0  0
   56.1172   -4.3591   -9.5260 C   0  0  0  0  0  0  0  0  0  0  0  0
   56.1752   -4.7149   -8.1824 C   0  0  0  0  0  0  0  0  0  0  0  0
   57.2996   -5.2591   -7.6237 C   0  0  0  0  0  0  0  0  0  0  0  0
   54.9738   -4.4818   -7.3622 C   0  0  0  0  0  0  0  0  0  0  0  0
   53.6927   -4.6175   -8.0902 C   0  0  0  0  0  0  0  0  0  0  0  0
   53.6855   -4.2747   -9.4490 N   0  0  0  0  0  0  0  0  0  0  0  0
   54.9014   -3.7453  -10.0056 C   0  0  0  0  0  0  0  0  0  0  0  0
   54.7457   -3.6822  -11.4704 C   0  0  0  0  0  0  0  0  0  0  0  0
   55.9784   -3.7761  -12.2574 C   0  0  0  0  0  0  0  0  0  0  0  0
   55.9357   -3.4124  -13.6158 C   0  0  0  0  0  0  0  0  0  0  0  0
   57.0220   -3.5224  -14.4291 C   0  0  0  0  0  0  0  0  0  0  0  0
   58.1708   -4.0046  -13.8735 C   0  0  0  0  0  0  0  0  0  0  0  0
   58.2822   -4.3839  -12.5286 C   0  0  0  0  0  0  0  0  0  0  0  0
   57.1774   -4.2632  -11.7317 C   0  0  0  0  0  0  0  0  0  0  0  0
   60.3785   -5.7608  -10.0709 H   0  0  0  0  0  0  0  0  0  0  0  0
   52.9185   -3.5903   -9.6997 H   0  0  0  0  0  0  0  0  0  0  0  0
   60.5427   -6.6824   -8.5959 C   0  0  0  0  0  0  0  0  0  0  0  0
   59.5486   -6.0028   -7.8865 O   0  0  0  0  0  0  0  0  0  0  0  0
   57.3128   -5.5991   -6.2786 O   0  0  0  0  0  0  0  0  0  0  0  0
   56.4157   -6.5673   -5.7862 C   0  0  0  0  0  0  0  0  0  0  0  0
 21 22  1  0  0  0
 22  1  1  0  0  0
  1  2  2  0  0  0
  2  3  1  0  0  0
  2  4  1  0  0  0
  4  5  2  0  0  0
  5  6  1  0  0  0
  6  7  2  0  0  0
  7 23  1  0  0  0
 23 24  1  0  0  0
  6  8  1  0  0  0
  8  9  1  0  0  0
  9 10  1  0  0  0
 10 11  1  0  0  0
 11 12  1  0  0  0
 12 13  1  0  0  0
 13 14  2  0  0  0
 14 15  1  0  0  0
 15 16  2  0  0  0
 16 17  1  0  0  0
 17 18  2  0  0  0
  7  1  1  0  0  0
 18 13  1  0  0  0
 18  4  1  0  0  0
 11  5  1  0  0  0
  3 19  1  0  0  0
 10 20  1  0  0  0
M  END
> <minimizedAffinity>
-5.61490

> <CNNscore>
0.4408731759

> <CNNaffinity>
5.3908267021

> <CNN_VS>
2.3766708374

> <CNNaffinity_variance>
0.2580493093

$$$$
[H]Oc1c(OC([H])([H])[H])c(OC([H])([H])[H])c2c3c1-c1c([H])c([H])c([H])c([H])c1C([H])([H])[C@@]3([H])N([H])C([H])([H])C2([H])[H]


 24 27  0  0  0  0  0  0  0  0999 V2000
   64.1284   -9.9797  -12.7202 C   0  0  0  0  0  0  0  0  0  0  0  0
   63.8804   -9.0978  -11.6772 C   0  0  0  0  0  0  0  0  0  0  0  0
   64.3121   -7.8149  -11.8822 O   0  0  0  0  0  0  0  0  0  0  0  0
   63.2383   -9.5750  -10.5571 C   0  0  0  0  0  0  0  0  0  0  0  0
   62.8438  -10.8900  -10.4500 C   0  0  0  0  0  0  0  0  0  0  0  0
   63.1102  -11.7412  -11.5176 C   0  0  0  0  0  0  0  0  0  0  0  0
   63.7453  -11.3085  -12.6498 C   0  0  0  0  0  0  0  0  0  0  0  0
   62.6864  -13.1466  -11.3921 C   0  0  0  0  0  0  0  0  0  0  0  0
   61.4575  -13.3526  -10.5939 C   0  0  0  0  0  0  0  0  0  0  0  0
   61.2136  -12.4554   -9.5453 N   0  0  0  0  0  0  0  0  0  0  0  0
   62.2146  -11.4571   -9.2807 C   0  0  0  0  0  0  0  0  0  0  0  0
   61.6550  -10.4911   -8.3174 C   0  0  0  0  0  0  0  0  0  0  0  0
   62.1994   -9.1316   -8.3733 C   0  0  0  0  0  0  0  0  0  0  0  0
   61.9438   -8.2624   -7.2970 C   0  0  0  0  0  0  0  0  0  0  0  0
   62.3662   -6.9682   -7.2956 C   0  0  0  0  0  0  0  0  0  0  0  0
   63.0564   -6.5362   -8.3902 C   0  0  0  0  0  0  0  0  0  0  0  0
   63.3461   -7.3490   -9.4950 C   0  0  0  0  0  0  0  0  0  0  0  0
   62.9118   -8.6456   -9.4723 C   0  0  0  0  0  0  0  0  0  0  0  0
   64.7760   -7.4802  -12.6995 H   0  0  0  0  0  0  0  0  0  0  0  0
   61.0206  -12.9378   -8.6236 H   0  0  0  0  0  0  0  0  0  0  0  0
   64.1416   -9.0648  -15.0140 C   0  0  0  0  0  0  0  0  0  0  0  0
   64.7709   -9.5260  -13.8544 O   0  0  0  0  0  0  0  0  0  0  0  0
   63.9906  -12.1927  -13.6905 O   0  0  0  0  0  0  0  0  0  0  0  0
   65.2252  -12.8669  -13.7679 C   0  0  0  0  0  0  0  0  0  0  0  0
 21 22  1  0  0  0
 22  1  1  0  0  0
  1  2  2  0  0  0
  2  3  1  0  0  0
  2  4  1  0  0  0
  4  5  2  0  0  0
  5  6  1  0  0  0
  6  7  2  0  0  0
  7 23  1  0  0  0
 23 24  1  0  0  0
  6  8  1  0  0  0
  8  9  1  0  0  0
  9 10  1  0  0  0
 10 11  1  0  0  0
 11 12  1  0  0  0
 12 13  1  0  0  0
 13 14  2  0  0  0
 14 15  1  0  0  0
 15 16  2  0  0  0
 16 17  1  0  0  0
 17 18  2  0  0  0
  7  1  1  0  0  0
 18 13  1  0  0  0
 18  4  1  0  0  0
 11  5  1  0  0  0
  3 19  1  0  0  0
 10 20  1  0  0  0
M  END
> <minimizedAffinity>
-2.95129

> <CNNscore>
0.4085504115

> <CNNaffinity>
3.7674326897

> <CNN_VS>
1.5391861200

> <CNNaffinity_variance>
0.0520278402

$$$$
[H]Oc1c(OC([H])([H])[H])c(OC([H])([H])[H])c2c3c1-c1c([H])c([H])c([H])c([H])c1C([H])([H])[C@@]3([H])N([H])C([H])([H])C2([H])[H]


 24 27  0  0  0  0  0  0  0  0999 V2000
   57.5906   -4.6300  -11.3278 C   0  0  0  0  0  0  0  0  0  0  0  0
   56.3128   -4.2263  -10.9657 C   0  0  0  0  0  0  0  0  0  0  0  0
   55.5278   -3.7802  -11.9948 O   0  0  0  0  0  0  0  0  0  0  0  0
   55.9534   -4.3074   -9.6394 C   0  0  0  0  0  0  0  0  0  0  0  0
   56.8225   -4.7727   -8.6779 C   0  0  0  0  0  0  0  0  0  0  0  0
   58.0934   -5.1682   -9.0820 C   0  0  0  0  0  0  0  0  0  0  0  0
   58.4917   -5.1048  -10.3897 C   0  0  0  0  0  0  0  0  0  0  0  0
   59.0165   -5.6619   -8.0454 C   0  0  0  0  0  0  0  0  0  0  0  0
   58.3629   -6.3705   -6.9226 C   0  0  0  0  0  0  0  0  0  0  0  0
   57.0716   -5.9584   -6.5664 N   0  0  0  0  0  0  0  0  0  0  0  0
   56.5185   -4.8310   -7.2675 C   0  0  0  0  0  0  0  0  0  0  0  0
   55.0919   -4.7243   -6.9107 C   0  0  0  0  0  0  0  0  0  0  0  0
   54.2197   -4.0988   -7.9086 C   0  0  0  0  0  0  0  0  0  0  0  0
   52.9344   -3.6873   -7.5116 C   0  0  0  0  0  0  0  0  0  0  0  0
   52.0436   -3.1485   -8.3890 C   0  0  0  0  0  0  0  0  0  0  0  0
   52.4461   -3.0193   -9.6861 C   0  0  0  0  0  0  0  0  0  0  0  0
   53.7114   -3.4075  -10.1479 C   0  0  0  0  0  0  0  0  0  0  0  0
   54.5888   -3.9452   -9.2471 C   0  0  0  0  0  0  0  0  0  0  0  0
   55.7992   -3.7267  -12.9532 H   0  0  0  0  0  0  0  0  0  0  0  0
   56.9743   -5.7465   -5.5344 H   0  0  0  0  0  0  0  0  0  0  0  0
   58.7482   -3.5409  -13.2179 C   0  0  0  0  0  0  0  0  0  0  0  0
   57.9755   -4.5583  -12.6514 O   0  0  0  0  0  0  0  0  0  0  0  0
   59.7693   -5.5101  -10.7479 O   0  0  0  0  0  0  0  0  0  0  0  0
   60.4659   -6.4378   -9.9486 C   0  0  0  0  0  0  0  0  0  0  0  0
 21 22  1  0  0  0
 22  1  1  0  0  0
  1  2  2  0  0  0
  2  3  1  0  0  0
  2  4  1  0  0  0
  4  5  2  0  0  0
  5  6  1  0  0  0
  6  7  2  0  0  0
  7 23  1  0  0  0
 23 24  1  0  0  0
  6  8  1  0  0  0
  8  9  1  0  0  0
  9 10  1  0  0  0
 10 11  1  0  0  0
 11 12  1  0  0  0
 12 13  1  0  0  0
 13 14  2  0  0  0
 14 15  1  0  0  0
 15 16  2  0  0  0
 16 17  1  0  0  0
 17 18  2  0  0  0
  7  1  1  0  0  0
 18 13  1  0  0  0
 18  4  1  0  0  0
 11  5  1  0  0  0
  3 19  1  0  0  0
 10 20  1  0  0  0
M  END
> <minimizedAffinity>
-5.51915

> <CNNscore>
0.3829279840

> <CNNaffinity>
5.1458196640

> <CNN_VS>
1.9704782963

> <CNNaffinity_variance>
0.1584833860

$$$$
[H]Oc1c(OC([H])([H])[H])c(OC([H])([H])[H])c2c3c1-c1c([H])c([H])c([H])c([H])c1C([H])([H])[C@@]3([H])N([H])C([H])([H])C2([H])[H]


 24 27  0  0  0  0  0  0  0  0999 V2000
   53.8612   -4.7589   -7.8365 C   0  0  0  0  0  0  0  0  0  0  0  0
   52.6358   -4.2982   -7.3749 C   0  0  0  0  0  0  0  0  0  0  0  0
   51.9355   -3.5187   -8.2560 O   0  0  0  0  0  0  0  0  0  0  0  0
   52.2396   -4.6554   -6.1060 C   0  0  0  0  0  0  0  0  0  0  0  0
   53.0224   -5.4475   -5.2959 C   0  0  0  0  0  0  0  0  0  0  0  0
   54.2430   -5.8891   -5.7962 C   0  0  0  0  0  0  0  0  0  0  0  0
   54.6751   -5.5584   -7.0518 C   0  0  0  0  0  0  0  0  0  0  0  0
   55.0741   -6.7337   -4.9208 C   0  0  0  0  0  0  0  0  0  0  0  0
   54.3126   -7.6072   -4.0005 C   0  0  0  0  0  0  0  0  0  0  0  0
   53.0750   -7.1354   -3.5425 N   0  0  0  0  0  0  0  0  0  0  0  0
   52.6822   -5.8103   -3.9403 C   0  0  0  0  0  0  0  0  0  0  0  0
   51.2722   -5.6152   -3.5555 C   0  0  0  0  0  0  0  0  0  0  0  0
   50.5072   -4.6598   -4.3615 C   0  0  0  0  0  0  0  0  0  0  0  0
   49.2744   -4.1992   -3.8640 C   0  0  0  0  0  0  0  0  0  0  0  0
   48.4774   -3.3543   -4.5743 C   0  0  0  0  0  0  0  0  0  0  0  0
   48.9217   -2.9636   -5.8035 C   0  0  0  0  0  0  0  0  0  0  0  0
   50.1389   -3.3833   -6.3578 C   0  0  0  0  0  0  0  0  0  0  0  0
   50.9222   -4.2312   -5.6246 C   0  0  0  0  0  0  0  0  0  0  0  0
   52.2328   -3.2670   -9.1743 H   0  0  0  0  0  0  0  0  0  0  0  0
   52.9817   -7.1719   -2.4892 H   0  0  0  0  0  0  0  0  0  0  0  0
   54.9890   -3.2567   -9.4397 C   0  0  0  0  0  0  0  0  0  0  0  0
   54.2815   -4.4146   -9.1054 O   0  0  0  0  0  0  0  0  0  0  0  0
   55.9001   -6.0214   -7.5100 O   0  0  0  0  0  0  0  0  0  0  0  0
   57.0549   -5.2282   -7.3620 C   0  0  0  0  0  0  0  0  0  0  0  0
 21 22  1  0  0  0
 22  1  1  0  0  0
  1  2  2  0  0  0
  2  3  1  0  0  0
  2  4  1  0  0  0
  4  5  2  0  0  0
  5  6  1  0  0  0
  6  7  2  0  0  0
  7 23  1  0  0  0
 23 24  1  0  0  0
  6  8  1  0  0  0
  8  9  1  0  0  0
  9 10  1  0  0  0
 10 11  1  0  0  0
 11 12  1  0  0  0
 12 13  1  0  0  0
 13 14  2  0  0  0
 14 15  1  0  0  0
 15 16  2  0  0  0
 16 17  1  0  0  0
 17 18  2  0  0  0
  7  1  1  0  0  0
 18 13  1  0  0  0
 18  4  1  0  0  0
 11  5  1  0  0  0
  3 19  1  0  0  0
 10 20  1  0  0  0
M  END
> <minimizedAffinity>
-8.30191

> <CNNscore>
0.3510893881

> <CNNaffinity>
5.9411859512

> <CNN_VS>
2.0858874321

> <CNNaffinity_variance>
0.4789962173

$$$$
[H]Oc1c(OC([H])([H])[H])c(OC([H])([H])[H])c2c3c1-c1c([H])c([H])c([H])c([H])c1C([H])([H])[C@@]3([H])N([H])C([H])([H])C2([H])[H]


 24 27  0  0  0  0  0  0  0  0999 V2000
   52.3856   -4.3801   -7.3527 C   0  0  0  0  0  0  0  0  0  0  0  0
   53.3820   -5.1035   -6.7116 C   0  0  0  0  0  0  0  0  0  0  0  0
   54.5654   -5.1983   -7.3936 O   0  0  0  0  0  0  0  0  0  0  0  0
   53.1033   -5.6480   -5.4786 C   0  0  0  0  0  0  0  0  0  0  0  0
   51.8744   -5.4938   -4.8767 C   0  0  0  0  0  0  0  0  0  0  0  0
   50.9034   -4.7612   -5.5517 C   0  0  0  0  0  0  0  0  0  0  0  0
   51.1382   -4.2023   -6.7785 C   0  0  0  0  0  0  0  0  0  0  0  0
   49.5912   -4.6043   -4.9005 C   0  0  0  0  0  0  0  0  0  0  0  0
   49.6372   -4.5521   -3.4224 C   0  0  0  0  0  0  0  0  0  0  0  0
   50.6486   -5.2826   -2.7840 N   0  0  0  0  0  0  0  0  0  0  0  0
   51.5095   -6.0849   -3.6108 C   0  0  0  0  0  0  0  0  0  0  0  0
   52.6272   -6.5656   -2.7779 C   0  0  0  0  0  0  0  0  0  0  0  0
   53.8827   -6.8479   -3.4792 C   0  0  0  0  0  0  0  0  0  0  0  0
   54.8705   -7.5942   -2.8109 C   0  0  0  0  0  0  0  0  0  0  0  0
   56.0844   -7.8529   -3.3704 C   0  0  0  0  0  0  0  0  0  0  0  0
   56.3138   -7.3564   -4.6202 C   0  0  0  0  0  0  0  0  0  0  0  0
   55.3740   -6.6071   -5.3416 C   0  0  0  0  0  0  0  0  0  0  0  0
   54.1616   -6.3613   -4.7586 C   0  0  0  0  0  0  0  0  0  0  0  0
   54.7561   -4.7982   -8.2872 H   0  0  0  0  0  0  0  0  0  0  0  0
   50.2819   -5.9216   -2.0247 H   0  0  0  0  0  0  0  0  0  0  0  0
   53.1855   -2.5570   -8.8139 C   0  0  0  0  0  0  0  0  0  0  0  0
   52.6399   -3.8241   -8.5902 O   0  0  0  0  0  0  0  0  0  0  0  0
   50.1401   -3.4793   -7.4157 O   0  0  0  0  0  0  0  0  0  0  0  0
   49.9878   -2.1035   -7.1535 C   0  0  0  0  0  0  0  0  0  0  0  0
 21 22  1  0  0  0
 22  1  1  0  0  0
  1  2  2  0  0  0
  2  3  1  0  0  0
  2  4  1  0  0  0
  4  5  2  0  0  0
  5  6  1  0  0  0
  6  7  2  0  0  0
  7 23  1  0  0  0
 23 24  1  0  0  0
  6  8  1  0  0  0
  8  9  1  0  0  0
  9 10  1  0  0  0
 10 11  1  0  0  0
 11 12  1  0  0  0
 12 13  1  0  0  0
 13 14  2  0  0  0
 14 15  1  0  0  0
 15 16  2  0  0  0
 16 17  1  0  0  0
 17 18  2  0  0  0
  7  1  1  0  0  0
 18 13  1  0  0  0
 18  4  1  0  0  0
 11  5  1  0  0  0
  3 19  1  0  0  0
 10 20  1  0  0  0
M  END
> <minimizedAffinity>
-8.28378

> <CNNscore>
0.3439272940

> <CNNaffinity>
5.7717423439

> <CNN_VS>
1.9850597382

> <CNNaffinity_variance>
0.0353140943

$$$$
[H]c1c([H])c([H])c(N([H])[C@@]2([H])c3c([H])c(-c4c([H])c([H])c(C(F)(F)F)c([H])c4[H])c([H])c([H])c3N(C(=O)C([H])([H])[H])[C@@]([H])(C([H])([H])[H])C2([H])[H])c([H])c1[H]


 32 35  0  0  0  0  0  0  0  0999 V2000
   50.4024   -2.2355   -7.3057 C   0  0  0  0  0  0  0  0  0  0  0  0
   50.4355   -3.4387   -6.4642 C   0  0  0  0  0  0  0  0  0  0  0  0
   49.4146   -3.6608   -5.7275 O   0  0  0  0  0  0  0  0  0  0  0  0
   51.5220   -4.3357   -6.4270 N   0  0  0  0  0  0  0  0  0  0  0  0
   52.6110   -4.3918   -7.3236 C   0  0  0  0  0  0  0  0  0  0  0  0
   52.4211   -4.0114   -8.6473 C   0  0  0  0  0  0  0  0  0  0  0  0
   53.5182   -4.0067   -9.4752 C   0  0  0  0  0  0  0  0  0  0  0  0
   54.7966   -4.3552   -9.0835 C   0  0  0  0  0  0  0  0  0  0  0  0
   54.9507   -4.7340   -7.7717 C   0  0  0  0  0  0  0  0  0  0  0  0
   53.8636   -4.7537   -6.8916 C   0  0  0  0  0  0  0  0  0  0  0  0
   54.1422   -5.2405   -5.5344 C   0  0  0  0  0  0  0  0  0  0  0  0
   52.9483   -5.1635   -4.6236 C   0  0  0  0  0  0  0  0  0  0  0  0
   51.6277   -5.2909   -5.3054 C   0  0  0  0  0  0  0  0  0  0  0  0
   51.1957   -6.6458   -5.7246 C   0  0  0  0  0  0  0  0  0  0  0  0
   55.9460   -4.3006   -9.9931 C   0  0  0  0  0  0  0  0  0  0  0  0
   55.8067   -3.7507  -11.2605 C   0  0  0  0  0  0  0  0  0  0  0  0
   56.8568   -3.6217  -12.1418 C   0  0  0  0  0  0  0  0  0  0  0  0
   58.1102   -4.0660  -11.7444 C   0  0  0  0  0  0  0  0  0  0  0  0
   58.2857   -4.6200  -10.4951 C   0  0  0  0  0  0  0  0  0  0  0  0
   57.1944   -4.7313   -9.6308 C   0  0  0  0  0  0  0  0  0  0  0  0
   59.2471   -3.9038  -12.7201 C   0  0  0  0  0  0  0  0  0  0  0  0
   59.8177   -2.6498  -12.5788 F   0  0  0  0  0  0  0  0  0  0  0  0
   58.8458   -4.0438  -14.0143 F   0  0  0  0  0  0  0  0  0  0  0  0
   60.2340   -4.8095  -12.3405 F   0  0  0  0  0  0  0  0  0  0  0  0
   54.5738   -6.6486   -5.6504 N   0  0  0  0  0  0  0  0  0  0  0  0
   54.1250   -7.2104   -6.4069 H   0  0  0  0  0  0  0  0  0  0  0  0
   55.5459   -7.1902   -4.7627 C   0  0  0  0  0  0  0  0  0  0  0  0
   56.8815   -6.8473   -4.9006 C   0  0  0  0  0  0  0  0  0  0  0  0
   57.7800   -7.3436   -3.9877 C   0  0  0  0  0  0  0  0  0  0  0  0
   57.4367   -8.1640   -2.9428 C   0  0  0  0  0  0  0  0  0  0  0  0
   56.1021   -8.5180   -2.7923 C   0  0  0  0  0  0  0  0  0  0  0  0
   55.1898   -8.0264   -3.6999 C   0  0  0  0  0  0  0  0  0  0  0  0
  1  2  1  0  0  0
  2  3  2  0  0  0
  2  4  1  0  0  0
  4  5  1  0  0  0
  5  6  2  0  0  0
  6  7  1  0  0  0
  7  8  2  0  0  0
  8 15  1  0  0  0
 15 16  2  0  0  0
 16 17  1  0  0  0
 17 18  2  0  0  0
 18 21  1  0  0  0
 21 22  1  0  0  0
 21 23  1  0  0  0
 21 24  1  0  0  0
 18 19  1  0  0  0
 19 20  2  0  0  0
  8  9  1  0  0  0
  9 10  2  0  0  0
 10 11  1  0  0  0
 11 25  1  0  0  0
 25 27  1  0  0  0
 27 28  2  0  0  0
 28 29  1  0  0  0
 29 30  2  0  0  0
 30 31  1  0  0  0
 31 32  2  0  0  0
 11 12  1  0  0  0
 12 13  1  0  0  0
 13 14  1  0  0  0
 13  4  1  0  0  0
 10  5  1  0  0  0
 32 27  1  0  0  0
 20 15  1  0  0  0
 25 26  1  0  0  0
M  END
> <minimizedAffinity>
-9.06399

> <CNNscore>
0.3940735757

> <CNNaffinity>
6.8748159409

> <CNN_VS>
2.7091832161

> <CNNaffinity_variance>
0.2205234021

$$$$
[H]c1c([H])c([H])c(N([H])[C@@]2([H])c3c([H])c(-c4c([H])c([H])c(C(F)(F)F)c([H])c4[H])c([H])c([H])c3N(C(=O)C([H])([H])[H])[C@@]([H])(C([H])([H])[H])C2([H])[H])c([H])c1[H]


 32 35  0  0  0  0  0  0  0  0999 V2000
   63.3451   -2.7145  -15.4214 C   0  0  0  0  0  0  0  0  0  0  0  0
   61.8813   -2.7286  -15.5389 C   0  0  0  0  0  0  0  0  0  0  0  0
   61.3681   -2.0465  -16.4905 O   0  0  0  0  0  0  0  0  0  0  0  0
   61.0346   -3.4386  -14.6638 N   0  0  0  0  0  0  0  0  0  0  0  0
   61.4131   -4.4196  -13.7220 C   0  0  0  0  0  0  0  0  0  0  0  0
   62.5197   -5.2200  -13.9826 C   0  0  0  0  0  0  0  0  0  0  0  0
   62.9055   -6.1137  -13.0123 C   0  0  0  0  0  0  0  0  0  0  0  0
   62.2688   -6.2732  -11.7964 C   0  0  0  0  0  0  0  0  0  0  0  0
   61.1741   -5.4737  -11.5717 C   0  0  0  0  0  0  0  0  0  0  0  0
   60.7445   -4.5489  -12.5292 C   0  0  0  0  0  0  0  0  0  0  0  0
   59.5242   -3.8009  -12.2004 C   0  0  0  0  0  0  0  0  0  0  0  0
   59.1643   -2.7741  -13.2382 C   0  0  0  0  0  0  0  0  0  0  0  0
   59.5962   -3.1053  -14.6270 C   0  0  0  0  0  0  0  0  0  0  0  0
   58.8031   -4.1102  -15.3749 C   0  0  0  0  0  0  0  0  0  0  0  0
   62.7377   -7.2152  -10.7746 C   0  0  0  0  0  0  0  0  0  0  0  0
   63.0841   -8.5124  -11.1286 C   0  0  0  0  0  0  0  0  0  0  0  0
   63.5804   -9.4285  -10.2283 C   0  0  0  0  0  0  0  0  0  0  0  0
   63.7367   -9.0365   -8.9061 C   0  0  0  0  0  0  0  0  0  0  0  0
   63.4005   -7.7580   -8.5175 C   0  0  0  0  0  0  0  0  0  0  0  0
   62.9016   -6.8589   -9.4625 C   0  0  0  0  0  0  0  0  0  0  0  0
   64.2927  -10.0513   -7.9409 C   0  0  0  0  0  0  0  0  0  0  0  0
   63.6275  -11.2575   -8.0858 F   0  0  0  0  0  0  0  0  0  0  0  0
   64.1736   -9.6546   -6.6432 F   0  0  0  0  0  0  0  0  0  0  0  0
   65.6061  -10.2985   -8.3309 F   0  0  0  0  0  0  0  0  0  0  0  0
   58.4240   -4.7800  -12.0848 N   0  0  0  0  0  0  0  0  0  0  0  0
   58.4389   -5.5763  -12.7594 H   0  0  0  0  0  0  0  0  0  0  0  0
   57.4055   -4.6218  -11.1030 C   0  0  0  0  0  0  0  0  0  0  0  0
   56.1150   -4.2929  -11.4862 C   0  0  0  0  0  0  0  0  0  0  0  0
   55.1476   -4.2080  -10.5147 C   0  0  0  0  0  0  0  0  0  0  0  0
   55.3803   -4.4277   -9.1803 C   0  0  0  0  0  0  0  0  0  0  0  0
   56.6691   -4.7565   -8.7804 C   0  0  0  0  0  0  0  0  0  0  0  0
   57.6490   -4.8464   -9.7444 C   0  0  0  0  0  0  0  0  0  0  0  0
  1  2  1  0  0  0
  2  3  2  0  0  0
  2  4  1  0  0  0
  4  5  1  0  0  0
  5  6  2  0  0  0
  6  7  1  0  0  0
  7  8  2  0  0  0
  8 15  1  0  0  0
 15 16  2  0  0  0
 16 17  1  0  0  0
 17 18  2  0  0  0
 18 21  1  0  0  0
 21 22  1  0  0  0
 21 23  1  0  0  0
 21 24  1  0  0  0
 18 19  1  0  0  0
 19 20  2  0  0  0
  8  9  1  0  0  0
  9 10  2  0  0  0
 10 11  1  0  0  0
 11 25  1  0  0  0
 25 27  1  0  0  0
 27 28  2  0  0  0
 28 29  1  0  0  0
 29 30  2  0  0  0
 30 31  1  0  0  0
 31 32  2  0  0  0
 11 12  1  0  0  0
 12 13  1  0  0  0
 13 14  1  0  0  0
 13  4  1  0  0  0
 10  5  1  0  0  0
 32 27  1  0  0  0
 20 15  1  0  0  0
 25 26  1  0  0  0
M  END
> <minimizedAffinity>
-1.01035

> <CNNscore>
0.3867659569

> <CNNaffinity>
5.0733332634

> <CNN_VS>
1.9621925354

> <CNNaffinity_variance>
0.3464404941

$$$$
[H]c1c([H])c([H])c(N([H])[C@@]2([H])c3c([H])c(-c4c([H])c([H])c(C(F)(F)F)c([H])c4[H])c([H])c([H])c3N(C(=O)C([H])([H])[H])[C@@]([H])(C([H])([H])[H])C2([H])[H])c([H])c1[H]


 32 35  0  0  0  0  0  0  0  0999 V2000
   55.7758   -4.4263   -7.5009 C   0  0  0  0  0  0  0  0  0  0  0  0
   54.8404   -4.7701   -6.4222 C   0  0  0  0  0  0  0  0  0  0  0  0
   53.6203   -4.4221   -6.5781 O   0  0  0  0  0  0  0  0  0  0  0  0
   55.2208   -5.4447   -5.2445 N   0  0  0  0  0  0  0  0  0  0  0  0
   56.4424   -6.1087   -5.0003 C   0  0  0  0  0  0  0  0  0  0  0  0
   57.1202   -6.6963   -6.0625 C   0  0  0  0  0  0  0  0  0  0  0  0
   58.3421   -7.2693   -5.8031 C   0  0  0  0  0  0  0  0  0  0  0  0
   58.9431   -7.3035   -4.5593 C   0  0  0  0  0  0  0  0  0  0  0  0
   58.2452   -6.7217   -3.5285 C   0  0  0  0  0  0  0  0  0  0  0  0
   56.9984   -6.1255   -3.7444 C   0  0  0  0  0  0  0  0  0  0  0  0
   56.3216   -5.5977   -2.5528 C   0  0  0  0  0  0  0  0  0  0  0  0
   55.0246   -4.9059   -2.8690 C   0  0  0  0  0  0  0  0  0  0  0  0
   54.3162   -5.4193   -4.0772 C   0  0  0  0  0  0  0  0  0  0  0  0
   53.5800   -6.7001   -3.9530 C   0  0  0  0  0  0  0  0  0  0  0  0
   60.2666   -7.8947   -4.3353 C   0  0  0  0  0  0  0  0  0  0  0  0
   60.9608   -8.4703   -5.3911 C   0  0  0  0  0  0  0  0  0  0  0  0
   62.2272   -8.9947   -5.2591 C   0  0  0  0  0  0  0  0  0  0  0  0
   62.8340   -8.9483   -4.0117 C   0  0  0  0  0  0  0  0  0  0  0  0
   62.1741   -8.3874   -2.9400 C   0  0  0  0  0  0  0  0  0  0  0  0
   60.8910   -7.8654   -3.1168 C   0  0  0  0  0  0  0  0  0  0  0  0
   64.2244   -9.5169   -3.8930 C   0  0  0  0  0  0  0  0  0  0  0  0
   64.7170   -9.8307   -5.1489 F   0  0  0  0  0  0  0  0  0  0  0  0
   64.2620  -10.6440   -3.1290 F   0  0  0  0  0  0  0  0  0  0  0  0
   65.0377   -8.4921   -3.4168 F   0  0  0  0  0  0  0  0  0  0  0  0
   56.0559   -6.7396   -1.6540 N   0  0  0  0  0  0  0  0  0  0  0  0
   55.0677   -6.8636   -1.3415 H   0  0  0  0  0  0  0  0  0  0  0  0
   57.1076   -7.6066   -1.2437 C   0  0  0  0  0  0  0  0  0  0  0  0
   58.1388   -7.1239   -0.4537 C   0  0  0  0  0  0  0  0  0  0  0  0
   59.1029   -8.0055   -0.0292 C   0  0  0  0  0  0  0  0  0  0  0  0
   59.1105   -9.3416   -0.3417 C   0  0  0  0  0  0  0  0  0  0  0  0
   58.0846   -9.8401   -1.1341 C   0  0  0  0  0  0  0  0  0  0  0  0
   57.1101   -8.9673   -1.5660 C   0  0  0  0  0  0  0  0  0  0  0  0
  1  2  1  0  0  0
  2  3  2  0  0  0
  2  4  1  0  0  0
  4  5  1  0  0  0
  5  6  2  0  0  0
  6  7  1  0  0  0
  7  8  2  0  0  0
  8 15  1  0  0  0
 15 16  2  0  0  0
 16 17  1  0  0  0
 17 18  2  0  0  0
 18 21  1  0  0  0
 21 22  1  0  0  0
 21 23  1  0  0  0
 21 24  1  0  0  0
 18 19  1  0  0  0
 19 20  2  0  0  0
  8  9  1  0  0  0
  9 10  2  0  0  0
 10 11  1  0  0  0
 11 25  1  0  0  0
 25 27  1  0  0  0
 27 28  2  0  0  0
 28 29  1  0  0  0
 29 30  2  0  0  0
 30 31  1  0  0  0
 31 32  2  0  0  0
 11 12  1  0  0  0
 12 13  1  0  0  0
 13 14  1  0  0  0
 13  4  1  0  0  0
 10  5  1  0  0  0
 32 27  1  0  0  0
 20 15  1  0  0  0
 25 26  1  0  0  0
M  END
> <minimizedAffinity>
-0.54650

> <CNNscore>
0.3419140577

> <CNNaffinity>
5.9177675247

> <CNN_VS>
2.0233678818

> <CNNaffinity_variance>
1.2228215933

$$$$
[H]c1c([H])c([H])c(N([H])[C@@]2([H])c3c([H])c(-c4c([H])c([H])c(C(F)(F)F)c([H])c4[H])c([H])c([H])c3N(C(=O)C([H])([H])[H])[C@@]([H])(C([H])([H])[H])C2([H])[H])c([H])c1[H]


 32 35  0  0  0  0  0  0  0  0999 V2000
   58.7546   -3.1227  -12.3100 C   0  0  0  0  0  0  0  0  0  0  0  0
   57.4512   -3.3870  -11.6870 C   0  0  0  0  0  0  0  0  0  0  0  0
   56.4267   -2.8531  -12.2342 O   0  0  0  0  0  0  0  0  0  0  0  0
   57.2837   -4.1790  -10.5332 N   0  0  0  0  0  0  0  0  0  0  0  0
   58.2400   -5.0301   -9.9384 C   0  0  0  0  0  0  0  0  0  0  0  0
   59.1921   -5.6480  -10.7414 C   0  0  0  0  0  0  0  0  0  0  0  0
   60.1536   -6.4104  -10.1224 C   0  0  0  0  0  0  0  0  0  0  0  0
   60.2388   -6.6068   -8.7573 C   0  0  0  0  0  0  0  0  0  0  0  0
   59.2793   -5.9898   -7.9913 C   0  0  0  0  0  0  0  0  0  0  0  0
   58.2814   -5.2034   -8.5764 C   0  0  0  0  0  0  0  0  0  0  0  0
   57.2751   -4.6523   -7.6598 C   0  0  0  0  0  0  0  0  0  0  0  0
   56.2794   -3.7583   -8.3454 C   0  0  0  0  0  0  0  0  0  0  0  0
   56.0185   -4.0885   -9.7765 C   0  0  0  0  0  0  0  0  0  0  0  0
   55.1458   -5.2510  -10.0681 C   0  0  0  0  0  0  0  0  0  0  0  0
   61.3049   -7.4000   -8.1365 C   0  0  0  0  0  0  0  0  0  0  0  0
   62.2335   -8.0615   -8.9290 C   0  0  0  0  0  0  0  0  0  0  0  0
   63.2880   -8.7785   -8.4094 C   0  0  0  0  0  0  0  0  0  0  0  0
   63.4246   -8.8452   -7.0298 C   0  0  0  0  0  0  0  0  0  0  0  0
   62.5203   -8.2037   -6.2116 C   0  0  0  0  0  0  0  0  0  0  0  0
   61.4655   -7.4858   -6.7792 C   0  0  0  0  0  0  0  0  0  0  0  0
   64.5925   -9.6250   -6.4834 C   0  0  0  0  0  0  0  0  0  0  0  0
   65.7501   -8.8696   -6.5723 F   0  0  0  0  0  0  0  0  0  0  0  0
   64.7963  -10.7937   -7.1528 F   0  0  0  0  0  0  0  0  0  0  0  0
   64.3596   -9.7949   -5.1214 F   0  0  0  0  0  0  0  0  0  0  0  0
   56.5626   -5.7932   -7.0489 N   0  0  0  0  0  0  0  0  0  0  0  0
   56.2964   -6.5715   -7.6914 H   0  0  0  0  0  0  0  0  0  0  0  0
   56.2599   -5.8054   -5.6580 C   0  0  0  0  0  0  0  0  0  0  0  0
   56.1059   -7.0098   -4.9902 C   0  0  0  0  0  0  0  0  0  0  0  0
   55.8736   -6.9802   -3.6367 C   0  0  0  0  0  0  0  0  0  0  0  0
   55.7818   -5.8262   -2.9000 C   0  0  0  0  0  0  0  0  0  0  0  0
   55.9322   -4.6109   -3.5554 C   0  0  0  0  0  0  0  0  0  0  0  0
   56.1670   -4.6258   -4.9128 C   0  0  0  0  0  0  0  0  0  0  0  0
  1  2  1  0  0  0
  2  3  2  0  0  0
  2  4  1  0  0  0
  4  5  1  0  0  0
  5  6  2  0  0  0
  6  7  1  0  0  0
  7  8  2  0  0  0
  8 15  1  0  0  0
 15 16  2  0  0  0
 16 17  1  0  0  0
 17 18  2  0  0  0
 18 21  1  0  0  0
 21 22  1  0  0  0
 21 23  1  0  0  0
 21 24  1  0  0  0
 18 19  1  0  0  0
 19 20  2  0  0  0
  8  9  1  0  0  0
  9 10  2  0  0  0
 10 11  1  0  0  0
 11 25  1  0  0  0
 25 27  1  0  0  0
 27 28  2  0  0  0
 28 29  1  0  0  0
 29 30  2  0  0  0
 30 31  1  0  0  0
 31 32  2  0  0  0
 11 12  1  0  0  0
 12 13  1  0  0  0
 13 14  1  0  0  0
 13  4  1  0  0  0
 10  5  1  0  0  0
 32 27  1  0  0  0
 20 15  1  0  0  0
 25 26  1  0  0  0
M  END
> <minimizedAffinity>
-2.38335

> <CNNscore>
0.3270114958

> <CNNaffinity>
5.5179624557

> <CNN_VS>
1.8044371605

> <CNNaffinity_variance>
0.3081187308

$$$$
[H]c1c([H])c([H])c(N([H])[C@@]2([H])c3c([H])c(-c4c([H])c([H])c(C(F)(F)F)c([H])c4[H])c([H])c([H])c3N(C(=O)C([H])([H])[H])[C@@]([H])(C([H])([H])[H])C2([H])[H])c([H])c1[H]


 32 35  0  0  0  0  0  0  0  0999 V2000
   56.0714   -2.9952  -11.4966 C   0  0  0  0  0  0  0  0  0  0  0  0
   55.2075   -3.4980  -10.4206 C   0  0  0  0  0  0  0  0  0  0  0  0
   53.9766   -3.1548  -10.4554 O   0  0  0  0  0  0  0  0  0  0  0  0
   55.6663   -4.3175   -9.3696 N   0  0  0  0  0  0  0  0  0  0  0  0
   56.9074   -4.9855   -9.2903 C   0  0  0  0  0  0  0  0  0  0  0  0
   57.5248   -5.4125  -10.4606 C   0  0  0  0  0  0  0  0  0  0  0  0
   58.7662   -5.9926  -10.3540 C   0  0  0  0  0  0  0  0  0  0  0  0
   59.4427   -6.1823   -9.1641 C   0  0  0  0  0  0  0  0  0  0  0  0
   58.8033   -5.7572   -8.0246 C   0  0  0  0  0  0  0  0  0  0  0  0
   57.5395   -5.1605   -8.0835 C   0  0  0  0  0  0  0  0  0  0  0  0
   56.9317   -4.8101   -6.7934 C   0  0  0  0  0  0  0  0  0  0  0  0
   55.6107   -4.1062   -6.9357 C   0  0  0  0  0  0  0  0  0  0  0  0
   54.8348   -4.4657   -8.1579 C   0  0  0  0  0  0  0  0  0  0  0  0
   54.1208   -5.7650   -8.1644 C   0  0  0  0  0  0  0  0  0  0  0  0
   60.7834   -6.7737   -9.1011 C   0  0  0  0  0  0  0  0  0  0  0  0
   61.0112   -8.0418   -9.6188 C   0  0  0  0  0  0  0  0  0  0  0  0
   62.2553   -8.6317   -9.6385 C   0  0  0  0  0  0  0  0  0  0  0  0
   63.3285   -7.9262   -9.1124 C   0  0  0  0  0  0  0  0  0  0  0  0
   63.1398   -6.6664   -8.5873 C   0  0  0  0  0  0  0  0  0  0  0  0
   61.8618   -6.1035   -8.5879 C   0  0  0  0  0  0  0  0  0  0  0  0
   64.6826   -8.5860   -9.1554 C   0  0  0  0  0  0  0  0  0  0  0  0
   64.6023   -9.7891   -9.8369 F   0  0  0  0  0  0  0  0  0  0  0  0
   65.1793   -8.8354   -7.9118 F   0  0  0  0  0  0  0  0  0  0  0  0
   65.5021   -7.7701   -9.9307 F   0  0  0  0  0  0  0  0  0  0  0  0
   56.7334   -6.0670   -6.0429 N   0  0  0  0  0  0  0  0  0  0  0  0
   56.6665   -6.9404   -6.6105 H   0  0  0  0  0  0  0  0  0  0  0  0
   56.6347   -6.0622   -4.6229 C   0  0  0  0  0  0  0  0  0  0  0  0
   57.5162   -6.8132   -3.8618 C   0  0  0  0  0  0  0  0  0  0  0  0
   57.4267   -6.7352   -2.4933 C   0  0  0  0  0  0  0  0  0  0  0  0
   56.5124   -5.9574   -1.8283 C   0  0  0  0  0  0  0  0  0  0  0  0
   55.6210   -5.2003   -2.5773 C   0  0  0  0  0  0  0  0  0  0  0  0
   55.7003   -5.2679   -3.9509 C   0  0  0  0  0  0  0  0  0  0  0  0
  1  2  1  0  0  0
  2  3  2  0  0  0
  2  4  1  0  0  0
  4  5  1  0  0  0
  5  6  2  0  0  0
  6  7  1  0  0  0
  7  8  2  0  0  0
  8 15  1  0  0  0
 15 16  2  0  0  0
 16 17  1  0  0  0
 17 18  2  0  0  0
 18 21  1  0  0  0
 21 22  1  0  0  0
 21 23  1  0  0  0
 21 24  1  0  0  0
 18 19  1  0  0  0
 19 20  2  0  0  0
  8  9  1  0  0  0
  9 10  2  0  0  0
 10 11  1  0  0  0
 11 25  1  0  0  0
 25 27  1  0  0  0
 27 28  2  0  0  0
 28 29  1  0  0  0
 29 30  2  0  0  0
 30 31  1  0  0  0
 31 32  2  0  0  0
 11 12  1  0  0  0
 12 13  1  0  0  0
 13 14  1  0  0  0
 13  4  1  0  0  0
 10  5  1  0  0  0
 32 27  1  0  0  0
 20 15  1  0  0  0
 25 26  1  0  0  0
M  END
> <minimizedAffinity>
-4.77025

> <CNNscore>
0.3135091066

> <CNNaffinity>
5.8475790024

> <CNN_VS>
1.8332692385

> <CNNaffinity_variance>
0.3183860183

$$$$
[H]c1c([H])c([H])c(N([H])[C@@]2([H])c3c([H])c(-c4c([H])c([H])c(C(F)(F)F)c([H])c4[H])c([H])c([H])c3N(C(=O)C([H])([H])[H])[C@@]([H])(C([H])([H])[H])C2([H])[H])c([H])c1[H]


 32 35  0  0  0  0  0  0  0  0999 V2000
   56.2210   -3.1367   -9.1032 C   0  0  0  0  0  0  0  0  0  0  0  0
   54.9060   -3.7809   -8.9918 C   0  0  0  0  0  0  0  0  0  0  0  0
   54.0407   -3.4941   -9.8880 O   0  0  0  0  0  0  0  0  0  0  0  0
   54.5598   -4.6754   -7.9590 N   0  0  0  0  0  0  0  0  0  0  0  0
   55.4335   -5.2889   -7.0354 C   0  0  0  0  0  0  0  0  0  0  0  0
   56.7392   -5.5716   -7.4203 C   0  0  0  0  0  0  0  0  0  0  0  0
   57.5847   -6.1002   -6.4745 C   0  0  0  0  0  0  0  0  0  0  0  0
   57.2267   -6.3717   -5.1678 C   0  0  0  0  0  0  0  0  0  0  0  0
   55.9278   -6.0889   -4.8200 C   0  0  0  0  0  0  0  0  0  0  0  0
   55.0311   -5.5494   -5.7482 C   0  0  0  0  0  0  0  0  0  0  0  0
   53.6545   -5.3539   -5.2755 C   0  0  0  0  0  0  0  0  0  0  0  0
   52.7664   -4.7025   -6.2992 C   0  0  0  0  0  0  0  0  0  0  0  0
   53.1344   -4.9786   -7.7181 C   0  0  0  0  0  0  0  0  0  0  0  0
   52.7754   -6.3033   -8.2786 C   0  0  0  0  0  0  0  0  0  0  0  0
   58.1734   -6.9027   -4.1814 C   0  0  0  0  0  0  0  0  0  0  0  0
   57.8758   -6.8423   -2.8265 C   0  0  0  0  0  0  0  0  0  0  0  0
   58.6962   -7.3690   -1.8540 C   0  0  0  0  0  0  0  0  0  0  0  0
   59.8761   -7.9845   -2.2483 C   0  0  0  0  0  0  0  0  0  0  0  0
   60.2059   -8.0606   -3.5840 C   0  0  0  0  0  0  0  0  0  0  0  0
   59.3452   -7.5147   -4.5388 C   0  0  0  0  0  0  0  0  0  0  0  0
   60.7525   -8.5645   -1.1684 C   0  0  0  0  0  0  0  0  0  0  0  0
   61.5252   -7.5666   -0.5980 F   0  0  0  0  0  0  0  0  0  0  0  0
   61.5885   -9.5309   -1.6402 F   0  0  0  0  0  0  0  0  0  0  0  0
   59.9038   -9.0057   -0.1567 F   0  0  0  0  0  0  0  0  0  0  0  0
   53.1104   -6.6852   -4.9381 N   0  0  0  0  0  0  0  0  0  0  0  0
   53.1364   -7.4026   -5.6958 H   0  0  0  0  0  0  0  0  0  0  0  0
   52.5779   -6.9505   -3.6448 C   0  0  0  0  0  0  0  0  0  0  0  0
   53.4204   -7.3179   -2.6077 C   0  0  0  0  0  0  0  0  0  0  0  0
   52.8760   -7.5069   -1.3608 C   0  0  0  0  0  0  0  0  0  0  0  0
   51.5421   -7.3560   -1.0762 C   0  0  0  0  0  0  0  0  0  0  0  0
   50.6848   -6.9896   -2.1056 C   0  0  0  0  0  0  0  0  0  0  0  0
   51.2174   -6.7954   -3.3611 C   0  0  0  0  0  0  0  0  0  0  0  0
  1  2  1  0  0  0
  2  3  2  0  0  0
  2  4  1  0  0  0
  4  5  1  0  0  0
  5  6  2  0  0  0
  6  7  1  0  0  0
  7  8  2  0  0  0
  8 15  1  0  0  0
 15 16  2  0  0  0
 16 17  1  0  0  0
 17 18  2  0  0  0
 18 21  1  0  0  0
 21 22  1  0  0  0
 21 23  1  0  0  0
 21 24  1  0  0  0
 18 19  1  0  0  0
 19 20  2  0  0  0
  8  9  1  0  0  0
  9 10  2  0  0  0
 10 11  1  0  0  0
 11 25  1  0  0  0
 25 27  1  0  0  0
 27 28  2  0  0  0
 28 29  1  0  0  0
 29 30  2  0  0  0
 30 31  1  0  0  0
 31 32  2  0  0  0
 11 12  1  0  0  0
 12 13  1  0  0  0
 13 14  1  0  0  0
 13  4  1  0  0  0
 10  5  1  0  0  0
 32 27  1  0  0  0
 20 15  1  0  0  0
 25 26  1  0  0  0
M  END
> <minimizedAffinity>
-3.35210

> <CNNscore>
0.2858341038

> <CNNaffinity>
6.0489950180

> <CNN_VS>
1.7290090322

> <CNNaffinity_variance>
0.9017633200

$$$$
[H]c1c([H])c([H])c(N([H])[C@@]2([H])c3c([H])c(-c4c([H])c([H])c(C(F)(F)F)c([H])c4[H])c([H])c([H])c3N(C(=O)C([H])([H])[H])[C@@]([H])(C([H])([H])[H])C2([H])[H])c([H])c1[H]


 32 35  0  0  0  0  0  0  0  0999 V2000
   54.7692   -5.6099   -8.0802 C   0  0  0  0  0  0  0  0  0  0  0  0
   54.8623   -4.5479   -9.0902 C   0  0  0  0  0  0  0  0  0  0  0  0
   53.8273   -3.8177   -9.2627 O   0  0  0  0  0  0  0  0  0  0  0  0
   56.0137   -4.3079   -9.8669 N   0  0  0  0  0  0  0  0  0  0  0  0
   57.3059   -4.8373   -9.6601 C   0  0  0  0  0  0  0  0  0  0  0  0
   57.7214   -5.1284   -8.3656 C   0  0  0  0  0  0  0  0  0  0  0  0
   58.9555   -5.7118   -8.2059 C   0  0  0  0  0  0  0  0  0  0  0  0
   59.8128   -6.0278   -9.2425 C   0  0  0  0  0  0  0  0  0  0  0  0
   59.3773   -5.7208  -10.5091 C   0  0  0  0  0  0  0  0  0  0  0  0
   58.1286   -5.1272  -10.7211 C   0  0  0  0  0  0  0  0  0  0  0  0
   57.8051   -4.7866  -12.1125 C   0  0  0  0  0  0  0  0  0  0  0  0
   56.4208   -4.2225  -12.2749 C   0  0  0  0  0  0  0  0  0  0  0  0
   55.8987   -3.4851  -11.0881 C   0  0  0  0  0  0  0  0  0  0  0  0
   56.4082   -2.1134  -10.8493 C   0  0  0  0  0  0  0  0  0  0  0  0
   61.1069   -6.6838   -9.0279 C   0  0  0  0  0  0  0  0  0  0  0  0
   62.1022   -6.5946   -9.9919 C   0  0  0  0  0  0  0  0  0  0  0  0
   63.3552   -7.1422   -9.8294 C   0  0  0  0  0  0  0  0  0  0  0  0
   63.6323   -7.8173   -8.6488 C   0  0  0  0  0  0  0  0  0  0  0  0
   62.6681   -7.9285   -7.6708 C   0  0  0  0  0  0  0  0  0  0  0  0
   61.4101   -7.3574   -7.8747 C   0  0  0  0  0  0  0  0  0  0  0  0
   65.0135   -8.3979   -8.4874 C   0  0  0  0  0  0  0  0  0  0  0  0
   65.6454   -8.4671   -9.7179 F   0  0  0  0  0  0  0  0  0  0  0  0
   64.9919   -9.6497   -7.9507 F   0  0  0  0  0  0  0  0  0  0  0  0
   65.7488   -7.4823   -7.7395 F   0  0  0  0  0  0  0  0  0  0  0  0
   58.7930   -3.7848  -12.5628 N   0  0  0  0  0  0  0  0  0  0  0  0
   59.2941   -3.2583  -11.8137 H   0  0  0  0  0  0  0  0  0  0  0  0
   59.0273   -3.5617  -13.9490 C   0  0  0  0  0  0  0  0  0  0  0  0
   57.9618   -3.4932  -14.8324 C   0  0  0  0  0  0  0  0  0  0  0  0
   58.2251   -3.2170  -16.1520 C   0  0  0  0  0  0  0  0  0  0  0  0
   59.4845   -3.0055  -16.6540 C   0  0  0  0  0  0  0  0  0  0  0  0
   60.5629   -3.0726  -15.7814 C   0  0  0  0  0  0  0  0  0  0  0  0
   60.3133   -3.3475  -14.4548 C   0  0  0  0  0  0  0  0  0  0  0  0
  1  2  1  0  0  0
  2  3  2  0  0  0
  2  4  1  0  0  0
  4  5  1  0  0  0
  5  6  2  0  0  0
  6  7  1  0  0  0
  7  8  2  0  0  0
  8 15  1  0  0  0
 15 16  2  0  0  0
 16 17  1  0  0  0
 17 18  2  0  0  0
 18 21  1  0  0  0
 21 22  1  0  0  0
 21 23  1  0  0  0
 21 24  1  0  0  0
 18 19  1  0  0  0
 19 20  2  0  0  0
  8  9  1  0  0  0
  9 10  2  0  0  0
 10 11  1  0  0  0
 11 25  1  0  0  0
 25 27  1  0  0  0
 27 28  2  0  0  0
 28 29  1  0  0  0
 29 30  2  0  0  0
 30 31  1  0  0  0
 31 32  2  0  0  0
 11 12  1  0  0  0
 12 13  1  0  0  0
 13 14  1  0  0  0
 13  4  1  0  0  0
 10  5  1  0  0  0
 32 27  1  0  0  0
 20 15  1  0  0  0
 25 26  1  0  0  0
M  END
> <minimizedAffinity>
-2.20356

> <CNNscore>
0.2834534943

> <CNNaffinity>
5.3341889381

> <CNN_VS>
1.5119944811

> <CNNaffinity_variance>
0.0811907202

$$$$
[H]c1c([H])c([H])c(N([H])[C@@]2([H])c3c([H])c(-c4c([H])c([H])c(C(F)(F)F)c([H])c4[H])c([H])c([H])c3N(C(=O)C([H])([H])[H])[C@@]([H])(C([H])([H])[H])C2([H])[H])c([H])c1[H]


 32 35  0  0  0  0  0  0  0  0999 V2000
   54.5387   -6.2430   -6.3043 C   0  0  0  0  0  0  0  0  0  0  0  0
   54.1459   -5.1076   -7.1488 C   0  0  0  0  0  0  0  0  0  0  0  0
   53.0184   -4.5599   -6.8984 O   0  0  0  0  0  0  0  0  0  0  0  0
   54.9354   -4.6106   -8.2054 N   0  0  0  0  0  0  0  0  0  0  0  0
   56.2860   -4.9187   -8.4771 C   0  0  0  0  0  0  0  0  0  0  0  0
   57.1371   -5.2295   -7.4225 C   0  0  0  0  0  0  0  0  0  0  0  0
   58.4257   -5.5972   -7.7276 C   0  0  0  0  0  0  0  0  0  0  0  0
   58.9347   -5.6779   -9.0097 C   0  0  0  0  0  0  0  0  0  0  0  0
   58.0718   -5.3571  -10.0297 C   0  0  0  0  0  0  0  0  0  0  0  0
   56.7510   -4.9780   -9.7682 C   0  0  0  0  0  0  0  0  0  0  0  0
   55.9473   -4.5949  -10.9360 C   0  0  0  0  0  0  0  0  0  0  0  0
   54.5201   -4.2724  -10.5897 C   0  0  0  0  0  0  0  0  0  0  0  0
   54.3133   -3.7306   -9.2154 C   0  0  0  0  0  0  0  0  0  0  0  0
   54.6721   -2.3128   -8.9718 C   0  0  0  0  0  0  0  0  0  0  0  0
   60.3077   -6.1104   -9.2908 C   0  0  0  0  0  0  0  0  0  0  0  0
   61.1081   -6.5995   -8.2670 C   0  0  0  0  0  0  0  0  0  0  0  0
   62.3856   -7.0702   -8.4732 C   0  0  0  0  0  0  0  0  0  0  0  0
   62.8961   -7.0500   -9.7637 C   0  0  0  0  0  0  0  0  0  0  0  0
   62.1318   -6.5689  -10.8043 C   0  0  0  0  0  0  0  0  0  0  0  0
   60.8400   -6.1019  -10.5526 C   0  0  0  0  0  0  0  0  0  0  0  0
   64.2915   -7.5811   -9.9680 C   0  0  0  0  0  0  0  0  0  0  0  0
   64.3666   -8.2666  -11.1691 F   0  0  0  0  0  0  0  0  0  0  0  0
   64.6770   -8.4268   -8.9722 F   0  0  0  0  0  0  0  0  0  0  0  0
   65.1243   -6.4751  -10.1149 F   0  0  0  0  0  0  0  0  0  0  0  0
   56.5817   -3.4037  -11.5369 N   0  0  0  0  0  0  0  0  0  0  0  0
   56.7052   -2.5782  -10.9103 H   0  0  0  0  0  0  0  0  0  0  0  0
   56.9883   -3.4024  -12.9011 C   0  0  0  0  0  0  0  0  0  0  0  0
   58.3351   -3.4387  -13.2255 C   0  0  0  0  0  0  0  0  0  0  0  0
   58.6851   -3.4967  -14.5526 C   0  0  0  0  0  0  0  0  0  0  0  0
   57.7798   -3.5190  -15.5835 C   0  0  0  0  0  0  0  0  0  0  0  0
   56.4263   -3.4814  -15.2744 C   0  0  0  0  0  0  0  0  0  0  0  0
   56.0608   -3.4244  -13.9475 C   0  0  0  0  0  0  0  0  0  0  0  0
  1  2  1  0  0  0
  2  3  2  0  0  0
  2  4  1  0  0  0
  4  5  1  0  0  0
  5  6  2  0  0  0
  6  7  1  0  0  0
  7  8  2  0  0  0
  8 15  1  0  0  0
 15 16  2  0  0  0
 16 17  1  0  0  0
 17 18  2  0  0  0
 18 21  1  0  0  0
 21 22  1  0  0  0
 21 23  1  0  0  0
 21 24  1  0  0  0
 18 19  1  0  0  0
 19 20  2  0  0  0
  8  9  1  0  0  0
  9 10  2  0  0  0
 10 11  1  0  0  0
 11 25  1  0  0  0
 25 27  1  0  0  0
 27 28  2  0  0  0
 28 29  1  0  0  0
 29 30  2  0  0  0
 30 31  1  0  0  0
 31 32  2  0  0  0
 11 12  1  0  0  0
 12 13  1  0  0  0
 13 14  1  0  0  0
 13  4  1  0  0  0
 10  5  1  0  0  0
 32 27  1  0  0  0
 20 15  1  0  0  0
 25 26  1  0  0  0
M  END
> <minimizedAffinity>
-6.33696

> <CNNscore>
0.2802246511

> <CNNaffinity>
5.9622612000

> <CNN_VS>
1.6707725525

> <CNNaffinity_variance>
0.1015828401

$$$$
[H]c1c([H])c([H])c(N([H])[C@@]2([H])c3c([H])c(-c4c([H])c([H])c(C(F)(F)F)c([H])c4[H])c([H])c([H])c3N(C(=O)C([H])([H])[H])[C@@]([H])(C([H])([H])[H])C2([H])[H])c([H])c1[H]


 32 35  0  0  0  0  0  0  0  0999 V2000
   52.1724   -2.5213   -8.4731 C   0  0  0  0  0  0  0  0  0  0  0  0
   52.7065   -3.5933   -7.6233 C   0  0  0  0  0  0  0  0  0  0  0  0
   52.0213   -3.9138   -6.5928 O   0  0  0  0  0  0  0  0  0  0  0  0
   53.9184   -4.2646   -7.8827 N   0  0  0  0  0  0  0  0  0  0  0  0
   54.6781   -4.2215   -9.0717 C   0  0  0  0  0  0  0  0  0  0  0  0
   54.0280   -4.0367  -10.2868 C   0  0  0  0  0  0  0  0  0  0  0  0
   54.8029   -3.9248  -11.4163 C   0  0  0  0  0  0  0  0  0  0  0  0
   56.1833   -3.9848  -11.4285 C   0  0  0  0  0  0  0  0  0  0  0  0
   56.7962   -4.1759  -10.2136 C   0  0  0  0  0  0  0  0  0  0  0  0
   56.0493   -4.2946   -9.0369 C   0  0  0  0  0  0  0  0  0  0  0  0
   56.8144   -4.5631   -7.8125 C   0  0  0  0  0  0  0  0  0  0  0  0
   55.9568   -4.6035   -6.5781 C   0  0  0  0  0  0  0  0  0  0  0  0
   54.5511   -5.0492   -6.8031 C   0  0  0  0  0  0  0  0  0  0  0  0
   54.3096   -6.4994   -6.9944 C   0  0  0  0  0  0  0  0  0  0  0  0
   56.9721   -3.8239  -12.6546 C   0  0  0  0  0  0  0  0  0  0  0  0
   56.3382   -3.7614  -13.8883 C   0  0  0  0  0  0  0  0  0  0  0  0
   57.0152   -3.5589  -15.0702 C   0  0  0  0  0  0  0  0  0  0  0  0
   58.3948   -3.4151  -15.0241 C   0  0  0  0  0  0  0  0  0  0  0  0
   59.0584   -3.4745  -13.8180 C   0  0  0  0  0  0  0  0  0  0  0  0
   58.3339   -3.6801  -12.6419 C   0  0  0  0  0  0  0  0  0  0  0  0
   59.1137   -3.1823  -16.3279 C   0  0  0  0  0  0  0  0  0  0  0  0
   58.3876   -3.7277  -17.3736 F   0  0  0  0  0  0  0  0  0  0  0  0
   60.3582   -3.7359  -16.3416 F   0  0  0  0  0  0  0  0  0  0  0  0
   59.1117   -1.8074  -16.5473 F   0  0  0  0  0  0  0  0  0  0  0  0
   57.4784   -5.8715   -7.9849 N   0  0  0  0  0  0  0  0  0  0  0  0
   56.9713   -6.7022   -7.6078 H   0  0  0  0  0  0  0  0  0  0  0  0
   58.7448   -5.9690   -8.6276 C   0  0  0  0  0  0  0  0  0  0  0  0
   58.8359   -5.8559  -10.0058 C   0  0  0  0  0  0  0  0  0  0  0  0
   60.0820   -5.8956  -10.5826 C   0  0  0  0  0  0  0  0  0  0  0  0
   61.2490   -6.0431   -9.8761 C   0  0  0  0  0  0  0  0  0  0  0  0
   61.1739   -6.1594   -8.4942 C   0  0  0  0  0  0  0  0  0  0  0  0
   59.9307   -6.1199   -7.9021 C   0  0  0  0  0  0  0  0  0  0  0  0
  1  2  1  0  0  0
  2  3  2  0  0  0
  2  4  1  0  0  0
  4  5  1  0  0  0
  5  6  2  0  0  0
  6  7  1  0  0  0
  7  8  2  0  0  0
  8 15  1  0  0  0
 15 16  2  0  0  0
 16 17  1  0  0  0
 17 18  2  0  0  0
 18 21  1  0  0  0
 21 22  1  0  0  0
 21 23  1  0  0  0
 21 24  1  0  0  0
 18 19  1  0  0  0
 19 20  2  0  0  0
  8  9  1  0  0  0
  9 10  2  0  0  0
 10 11  1  0  0  0
 11 25  1  0  0  0
 25 27  1  0  0  0
 27 28  2  0  0  0
 28 29  1  0  0  0
 29 30  2  0  0  0
 30 31  1  0  0  0
 31 32  2  0  0  0
 11 12  1  0  0  0
 12 13  1  0  0  0
 13 14  1  0  0  0
 13  4  1  0  0  0
 10  5  1  0  0  0
 32 27  1  0  0  0
 20 15  1  0  0  0
 25 26  1  0  0  0
M  END
> <minimizedAffinity>
-6.23707

> <CNNscore>
0.2623113394

> <CNNaffinity>
6.1407122612

> <CNN_VS>
1.6107784510

> <CNNaffinity_variance>
0.1551106870

$$$$
[H]c1nc(OC2([H])C([H])([H])[C@@]3([H])N(C(=O)OC(C([H])([H])[H])(C([H])([H])[H])C([H])([H])[H])[C@]([H])(C2([H])[H])C([H])([H])C3([H])[H])c([N+](=O)[O-])c(N([H])c2c([H])c([H])c(S(=O)(=O)C([H])([H])[H])c([H])c2[H])n1


 37 40  0  0  0  0  0  0  0  0999 V2000
   63.2512   -8.6489   -8.2554 C   0  0  0  0  0  0  0  0  0  0  0  0
   63.4428   -7.8485   -7.0014 N   0  0  0  0  0  0  0  0  0  0  0  0
   62.7506   -6.5275   -6.8417 C   0  0  0  0  0  0  0  0  0  0  0  0
   61.8668   -6.0067   -7.9361 N   0  0  0  0  0  0  0  0  0  0  0  0
   61.6752   -6.8070   -9.1902 C   0  0  0  0  0  0  0  0  0  0  0  0
   62.3674   -8.1281   -9.3498 C   0  0  0  0  0  0  0  0  0  0  0  0
   62.1758   -8.9285  -10.6039 N   0  0  0  0  0  0  0  0  0  0  0  0
   62.8887   -8.5323  -11.8628 O   0  0  0  0  0  0  0  0  0  0  0  0
   61.3710  -10.1460  -10.9503 O   0  0  0  0  0  0  0  0  0  0  0  0
   60.7914   -6.2862  -10.2846 N   0  0  0  0  0  0  0  0  0  0  0  0
   61.2434   -6.3605  -11.7129 H   0  0  0  0  0  0  0  0  0  0  0  0
   59.4556   -5.6912   -9.9505 C   0  0  0  0  0  0  0  0  0  0  0  0
   58.6051   -5.1005  -11.0357 C   0  0  0  0  0  0  0  0  0  0  0  0
   57.2693   -4.5055  -10.7016 C   0  0  0  0  0  0  0  0  0  0  0  0
   56.7840   -4.5012   -9.2823 C   0  0  0  0  0  0  0  0  0  0  0  0
   57.6346   -5.0919   -8.1971 C   0  0  0  0  0  0  0  0  0  0  0  0
   58.9703   -5.6869   -8.5312 C   0  0  0  0  0  0  0  0  0  0  0  0
   55.4483   -3.9062   -8.9481 S   0  0  0  0  0  0  0  0  0  0  0  0
   54.1124   -3.3112   -8.6141 C   0  0  0  0  0  0  0  0  0  0  0  0
   55.8706   -3.7620   -7.5161 O   0  0  0  0  0  0  0  0  0  0  0  0
   55.0258   -4.0504  -10.3802 O   0  0  0  0  0  0  0  0  0  0  0  0
   63.9433   -9.9701   -8.4152 O   0  0  0  0  0  0  0  0  0  0  0  0
   64.6675  -10.2083   -9.5224 C   0  0  0  0  0  0  0  0  0  0  0  0
   65.3715   -8.9144   -9.2392 O   0  0  0  0  0  0  0  0  0  0  0  0
   64.7888  -11.2468  -10.5979 N   0  0  0  0  0  0  0  0  0  0  0  0
   63.9736  -12.5011  -10.7084 C   0  0  0  0  0  0  0  0  0  0  0  0
   64.4276  -13.2429  -11.9306 C   0  0  0  0  0  0  0  0  0  0  0  0
   65.5234  -12.4470  -12.5755 C   0  0  0  0  0  0  0  0  0  0  0  0
   65.7466  -11.2134  -11.7518 C   0  0  0  0  0  0  0  0  0  0  0  0
   65.7503  -10.0841  -10.7499 C   0  0  0  0  0  0  0  0  0  0  0  0
   64.7406  -10.2541   -9.6536 C   0  0  0  0  0  0  0  0  0  0  0  0
   63.8523  -11.4625   -9.6329 C   0  0  0  0  0  0  0  0  0  0  0  0
   63.6579  -10.3782   -8.4262 O   0  0  0  0  0  0  0  0  0  0  0  0
   65.2816  -10.5158   -7.0680 C   0  0  0  0  0  0  0  0  0  0  0  0
   63.9776  -11.2371   -7.2387 C   0  0  0  0  0  0  0  0  0  0  0  0
   62.6735  -11.9583   -7.4094 C   0  0  0  0  0  0  0  0  0  0  0  0
   64.2972  -12.0960   -6.0512 C   0  0  0  0  0  0  0  0  0  0  0  0
 34 35  1  0  0  0
 35 36  1  0  0  0
 35 37  1  0  0  0
 35 33  1  0  0  0
 33 23  1  0  0  0
 23 24  2  0  0  0
 23 25  1  0  0  0
 25 26  1  0  0  0
 26 27  1  0  0  0
 27 28  1  0  0  0
 28 29  1  0  0  0
 29 30  1  0  0  0
 30 31  1  0  0  0
 31 22  1  0  0  0
 22  1  1  0  0  0
  1  2  2  0  0  0
  2  3  1  0  0  0
  3  4  2  0  0  0
  4  5  1  0  0  0
  5 10  1  0  0  0
 10 12  1  0  0  0
 12 13  2  0  0  0
 13 14  1  0  0  0
 14 15  2  0  0  0
 15 18  1  0  0  0
 18 19  1  0  0  0
 18 20  2  0  0  0
 18 21  2  0  0  0
 15 16  1  0  0  0
 16 17  2  0  0  0
  5  6  2  0  0  0
  6  7  1  0  0  0
  7  8  2  0  0  0
  7  9  1  0  0  0
 31 32  1  0  0  0
 29 25  1  0  0  0
  6  1  1  0  0  0
 32 26  1  0  0  0
 17 12  1  0  0  0
 10 11  1  0  0  0
M  CHG 1   7   1
M  CHG 1   9  -1
M  END
> <minimizedAffinity>
-4.26434

> <CNNscore>
0.2346231937

> <CNNaffinity>
5.2185888290

> <CNN_VS>
1.2244019508

> <CNNaffinity_variance>
0.3150869012

$$$$
[H]c1nc(OC2([H])C([H])([H])[C@@]3([H])N(C(=O)OC(C([H])([H])[H])(C([H])([H])[H])C([H])([H])[H])[C@]([H])(C2([H])[H])C([H])([H])C3([H])[H])c([N+](=O)[O-])c(N([H])c2c([H])c([H])c(S(=O)(=O)C([H])([H])[H])c([H])c2[H])n1


 37 40  0  0  0  0  0  0  0  0999 V2000
   63.4976   -8.4072   -7.4163 C   0  0  0  0  0  0  0  0  0  0  0  0
   64.2816   -7.2987   -6.7787 N   0  0  0  0  0  0  0  0  0  0  0  0
   64.1578   -5.8972   -7.2988 C   0  0  0  0  0  0  0  0  0  0  0  0
   63.2500   -5.6042   -8.4564 N   0  0  0  0  0  0  0  0  0  0  0  0
   62.4660   -6.7127   -9.0939 C   0  0  0  0  0  0  0  0  0  0  0  0
   62.5897   -8.1142   -8.5739 C   0  0  0  0  0  0  0  0  0  0  0  0
   61.8057   -9.2227   -9.2115 N   0  0  0  0  0  0  0  0  0  0  0  0
   62.2388   -9.7835  -10.5336 O   0  0  0  0  0  0  0  0  0  0  0  0
   60.5758   -9.9875   -8.8211 O   0  0  0  0  0  0  0  0  0  0  0  0
   61.5581   -6.4197  -10.2516 N   0  0  0  0  0  0  0  0  0  0  0  0
   62.0282   -6.6665  -11.6545 H   0  0  0  0  0  0  0  0  0  0  0  0
   60.1803   -5.8799  -10.0062 C   0  0  0  0  0  0  0  0  0  0  0  0
   59.3711   -5.3416  -11.1487 C   0  0  0  0  0  0  0  0  0  0  0  0
   57.9933   -4.8019  -10.9032 C   0  0  0  0  0  0  0  0  0  0  0  0
   57.4246   -4.8004   -9.5152 C   0  0  0  0  0  0  0  0  0  0  0  0
   58.2338   -5.3388   -8.3726 C   0  0  0  0  0  0  0  0  0  0  0  0
   59.6116   -5.8785   -8.6181 C   0  0  0  0  0  0  0  0  0  0  0  0
   56.0469   -4.2607   -9.2697 S   0  0  0  0  0  0  0  0  0  0  0  0
   54.6690   -3.7209   -9.0243 C   0  0  0  0  0  0  0  0  0  0  0  0
   56.3345   -4.1951   -7.7990 O   0  0  0  0  0  0  0  0  0  0  0  0
   55.7591   -4.3263  -10.7404 O   0  0  0  0  0  0  0  0  0  0  0  0
   63.6213   -9.8087   -6.8963 O   0  0  0  0  0  0  0  0  0  0  0  0
   63.3365  -10.0680   -5.6083 C   0  0  0  0  0  0  0  0  0  0  0  0
   61.9225   -9.6849   -5.9309 O   0  0  0  0  0  0  0  0  0  0  0  0
   64.0331  -10.5272   -4.3618 N   0  0  0  0  0  0  0  0  0  0  0  0
   65.4885  -10.8692   -4.2402 C   0  0  0  0  0  0  0  0  0  0  0  0
   65.7516  -11.2784   -2.8213 C   0  0  0  0  0  0  0  0  0  0  0  0
   64.4588  -11.1892   -2.0659 C   0  0  0  0  0  0  0  0  0  0  0  0
   63.3967  -10.7250   -3.0180 C   0  0  0  0  0  0  0  0  0  0  0  0
   62.5526  -10.2556   -4.1784 C   0  0  0  0  0  0  0  0  0  0  0  0
   63.3239  -10.1032   -5.4558 C   0  0  0  0  0  0  0  0  0  0  0  0
   64.7919  -10.4100   -5.4867 C   0  0  0  0  0  0  0  0  0  0  0  0
   64.1077   -9.9156   -6.8858 O   0  0  0  0  0  0  0  0  0  0  0  0
   65.7434  -10.5704   -8.0672 C   0  0  0  0  0  0  0  0  0  0  0  0
   64.3841  -11.1153   -7.7427 C   0  0  0  0  0  0  0  0  0  0  0  0
   63.0247  -11.6601   -7.4183 C   0  0  0  0  0  0  0  0  0  0  0  0
   64.6604  -12.3150   -8.5997 C   0  0  0  0  0  0  0  0  0  0  0  0
 34 35  1  0  0  0
 35 36  1  0  0  0
 35 37  1  0  0  0
 35 33  1  0  0  0
 33 23  1  0  0  0
 23 24  2  0  0  0
 23 25  1  0  0  0
 25 26  1  0  0  0
 26 27  1  0  0  0
 27 28  1  0  0  0
 28 29  1  0  0  0
 29 30  1  0  0  0
 30 31  1  0  0  0
 31 22  1  0  0  0
 22  1  1  0  0  0
  1  2  2  0  0  0
  2  3  1  0  0  0
  3  4  2  0  0  0
  4  5  1  0  0  0
  5 10  1  0  0  0
 10 12  1  0  0  0
 12 13  2  0  0  0
 13 14  1  0  0  0
 14 15  2  0  0  0
 15 18  1  0  0  0
 18 19  1  0  0  0
 18 20  2  0  0  0
 18 21  2  0  0  0
 15 16  1  0  0  0
 16 17  2  0  0  0
  5  6  2  0  0  0
  6  7  1  0  0  0
  7  8  2  0  0  0
  7  9  1  0  0  0
 31 32  1  0  0  0
 29 25  1  0  0  0
  6  1  1  0  0  0
 32 26  1  0  0  0
 17 12  1  0  0  0
 10 11  1  0  0  0
M  CHG 1   7   1
M  CHG 1   9  -1
M  END
> <minimizedAffinity>
-4.17365

> <CNNscore>
0.2340129763

> <CNNaffinity>
5.4138092995

> <CNN_VS>
1.2669016123

> <CNNaffinity_variance>
0.3597852290

$$$$
[H]c1nc(OC2([H])C([H])([H])[C@@]3([H])N(C(=O)OC(C([H])([H])[H])(C([H])([H])[H])C([H])([H])[H])[C@]([H])(C2([H])[H])C([H])([H])C3([H])[H])c([N+](=O)[O-])c(N([H])c2c([H])c([H])c(S(=O)(=O)C([H])([H])[H])c([H])c2[H])n1


 37 40  0  0  0  0  0  0  0  0999 V2000
   63.6751   -8.2947   -7.4569 C   0  0  0  0  0  0  0  0  0  0  0  0
   64.3729   -7.1326   -6.8146 N   0  0  0  0  0  0  0  0  0  0  0  0
   64.1070   -5.7378   -7.2980 C   0  0  0  0  0  0  0  0  0  0  0  0
   63.1433   -5.5050   -8.4236 N   0  0  0  0  0  0  0  0  0  0  0  0
   62.4455   -6.6671   -9.0659 C   0  0  0  0  0  0  0  0  0  0  0  0
   62.7114   -8.0620   -8.5826 C   0  0  0  0  0  0  0  0  0  0  0  0
   62.0136   -9.2241   -9.2248 N   0  0  0  0  0  0  0  0  0  0  0  0
   60.8319   -9.8554   -8.5502 O   0  0  0  0  0  0  0  0  0  0  0  0
   62.2204   -9.9897  -10.4981 O   0  0  0  0  0  0  0  0  0  0  0  0
   61.4818   -6.4343  -10.1916 N   0  0  0  0  0  0  0  0  0  0  0  0
   61.8921   -6.7310  -11.6036 H   0  0  0  0  0  0  0  0  0  0  0  0
   60.1078   -5.9050   -9.9052 C   0  0  0  0  0  0  0  0  0  0  0  0
   59.2593   -5.3768  -11.0237 C   0  0  0  0  0  0  0  0  0  0  0  0
   57.8854   -4.8475  -10.7372 C   0  0  0  0  0  0  0  0  0  0  0  0
   57.3600   -4.8463   -9.3322 C   0  0  0  0  0  0  0  0  0  0  0  0
   58.2085   -5.3744   -8.2137 C   0  0  0  0  0  0  0  0  0  0  0  0
   59.5824   -5.9038   -8.5002 C   0  0  0  0  0  0  0  0  0  0  0  0
   55.9861   -4.3170   -9.0457 S   0  0  0  0  0  0  0  0  0  0  0  0
   54.6120   -3.7875   -8.7593 C   0  0  0  0  0  0  0  0  0  0  0  0
   56.0452   -4.9085   -7.6686 O   0  0  0  0  0  0  0  0  0  0  0  0
   55.9268   -3.7253  -10.4229 O   0  0  0  0  0  0  0  0  0  0  0  0
   63.9409   -9.6896   -6.9736 O   0  0  0  0  0  0  0  0  0  0  0  0
   64.5789  -10.5576   -7.7778 C   0  0  0  0  0  0  0  0  0  0  0  0
   65.5848   -9.4702   -8.0141 O   0  0  0  0  0  0  0  0  0  0  0  0
   64.4332  -11.9671   -8.2697 N   0  0  0  0  0  0  0  0  0  0  0  0
   63.3301  -12.9173   -7.9089 C   0  0  0  0  0  0  0  0  0  0  0  0
   63.5802  -14.2115   -8.6249 C   0  0  0  0  0  0  0  0  0  0  0  0
   64.8379  -14.0611   -9.4283 C   0  0  0  0  0  0  0  0  0  0  0  0
   65.3651  -12.6740   -9.2088 C   0  0  0  0  0  0  0  0  0  0  0  0
   65.6542  -11.2473   -8.8086 C   0  0  0  0  0  0  0  0  0  0  0  0
   64.6378  -10.6728   -7.8668 C   0  0  0  0  0  0  0  0  0  0  0  0
   63.4758  -11.5078   -7.4170 C   0  0  0  0  0  0  0  0  0  0  0  0
   63.5625   -9.9830   -6.8361 O   0  0  0  0  0  0  0  0  0  0  0  0
   62.1591  -10.5921   -5.3667 C   0  0  0  0  0  0  0  0  0  0  0  0
   63.6310  -10.3032   -5.3723 C   0  0  0  0  0  0  0  0  0  0  0  0
   65.1029  -10.0142   -5.3779 C   0  0  0  0  0  0  0  0  0  0  0  0
   63.6994  -10.6233   -3.9084 C   0  0  0  0  0  0  0  0  0  0  0  0
 34 35  1  0  0  0
 35 36  1  0  0  0
 35 37  1  0  0  0
 35 33  1  0  0  0
 33 23  1  0  0  0
 23 24  2  0  0  0
 23 25  1  0  0  0
 25 26  1  0  0  0
 26 27  1  0  0  0
 27 28  1  0  0  0
 28 29  1  0  0  0
 29 30  1  0  0  0
 30 31  1  0  0  0
 31 22  1  0  0  0
 22  1  1  0  0  0
  1  2  2  0  0  0
  2  3  1  0  0  0
  3  4  2  0  0  0
  4  5  1  0  0  0
  5 10  1  0  0  0
 10 12  1  0  0  0
 12 13  2  0  0  0
 13 14  1  0  0  0
 14 15  2  0  0  0
 15 18  1  0  0  0
 18 19  1  0  0  0
 18 20  2  0  0  0
 18 21  2  0  0  0
 15 16  1  0  0  0
 16 17  2  0  0  0
  5  6  2  0  0  0
  6  7  1  0  0  0
  7  8  2  0  0  0
  7  9  1  0  0  0
 31 32  1  0  0  0
 29 25  1  0  0  0
  6  1  1  0  0  0
 32 26  1  0  0  0
 17 12  1  0  0  0
 10 11  1  0  0  0
M  CHG 1   7   1
M  CHG 1   9  -1
M  END
> <minimizedAffinity>
-4.34106

> <CNNscore>
0.2304033190

> <CNNaffinity>
5.3040008545

> <CNN_VS>
1.2220593691

> <CNNaffinity_variance>
0.3022697270

$$$$
[H]c1nc(OC2([H])C([H])([H])[C@@]3([H])N(C(=O)OC(C([H])([H])[H])(C([H])([H])[H])C([H])([H])[H])[C@]([H])(C2([H])[H])C([H])([H])C3([H])[H])c([N+](=O)[O-])c(N([H])c2c([H])c([H])c(S(=O)(=O)C([H])([H])[H])c([H])c2[H])n1


 37 40  0  0  0  0  0  0  0  0999 V2000
   59.8664   -9.7231   -2.0317 C   0  0  0  0  0  0  0  0  0  0  0  0
   59.0812  -10.3289   -0.9064 N   0  0  0  0  0  0  0  0  0  0  0  0
   57.8878   -9.6090   -0.3519 C   0  0  0  0  0  0  0  0  0  0  0  0
   57.4795   -8.2833   -0.9228 N   0  0  0  0  0  0  0  0  0  0  0  0
   58.2647   -7.6775   -2.0481 C   0  0  0  0  0  0  0  0  0  0  0  0
   59.4581   -8.3974   -2.6026 C   0  0  0  0  0  0  0  0  0  0  0  0
   60.2433   -7.7915   -3.7280 N   0  0  0  0  0  0  0  0  0  0  0  0
   61.3243   -6.7934   -3.4360 O   0  0  0  0  0  0  0  0  0  0  0  0
   60.2170   -7.9480   -5.2196 O   0  0  0  0  0  0  0  0  0  0  0  0
   57.8564   -6.3518   -2.6190 N   0  0  0  0  0  0  0  0  0  0  0  0
   58.6786   -5.1291   -2.3381 H   0  0  0  0  0  0  0  0  0  0  0  0
   56.6259   -6.2490   -3.4707 C   0  0  0  0  0  0  0  0  0  0  0  0
   55.3634   -5.6758   -2.8985 C   0  0  0  0  0  0  0  0  0  0  0  0
   54.1330   -5.5730   -3.7503 C   0  0  0  0  0  0  0  0  0  0  0  0
   54.1651   -6.0434   -5.1743 C   0  0  0  0  0  0  0  0  0  0  0  0
   55.4277   -6.6166   -5.7465 C   0  0  0  0  0  0  0  0  0  0  0  0
   56.6581   -6.7194   -4.8947 C   0  0  0  0  0  0  0  0  0  0  0  0
   52.9348   -5.9406   -6.0261 S   0  0  0  0  0  0  0  0  0  0  0  0
   51.7043   -5.8378   -6.8779 C   0  0  0  0  0  0  0  0  0  0  0  0
   53.7303   -6.3615   -7.2261 O   0  0  0  0  0  0  0  0  0  0  0  0
   52.1392   -5.5197   -4.8261 O   0  0  0  0  0  0  0  0  0  0  0  0
   61.0599  -10.4428   -2.5863 O   0  0  0  0  0  0  0  0  0  0  0  0
   60.9254  -11.1862   -3.6983 C   0  0  0  0  0  0  0  0  0  0  0  0
   59.7011  -11.7709   -3.0585 O   0  0  0  0  0  0  0  0  0  0  0  0
   61.6187  -11.4011   -5.0109 N   0  0  0  0  0  0  0  0  0  0  0  0
   62.8615  -10.7019   -5.4764 C   0  0  0  0  0  0  0  0  0  0  0  0
   63.2019  -11.2215   -6.8418 C   0  0  0  0  0  0  0  0  0  0  0  0
   62.1695  -12.2418   -7.2201 C   0  0  0  0  0  0  0  0  0  0  0  0
   61.1910  -12.3527   -6.0886 C   0  0  0  0  0  0  0  0  0  0  0  0
   60.3799  -12.2543   -4.8191 C   0  0  0  0  0  0  0  0  0  0  0  0
   60.9274  -11.2633   -3.8351 C   0  0  0  0  0  0  0  0  0  0  0  0
   62.1681  -10.4871   -4.1638 C   0  0  0  0  0  0  0  0  0  0  0  0
   61.4727  -10.1952   -2.7143 O   0  0  0  0  0  0  0  0  0  0  0  0
   63.2980   -9.2746   -2.1480 C   0  0  0  0  0  0  0  0  0  0  0  0
   62.6219  -10.5748   -1.8280 C   0  0  0  0  0  0  0  0  0  0  0  0
   61.9457  -11.8749   -1.5081 C   0  0  0  0  0  0  0  0  0  0  0  0
   63.7710  -10.9543   -0.9417 C   0  0  0  0  0  0  0  0  0  0  0  0
 34 35  1  0  0  0
 35 36  1  0  0  0
 35 37  1  0  0  0
 35 33  1  0  0  0
 33 23  1  0  0  0
 23 24  2  0  0  0
 23 25  1  0  0  0
 25 26  1  0  0  0
 26 27  1  0  0  0
 27 28  1  0  0  0
 28 29  1  0  0  0
 29 30  1  0  0  0
 30 31  1  0  0  0
 31 22  1  0  0  0
 22  1  1  0  0  0
  1  2  2  0  0  0
  2  3  1  0  0  0
  3  4  2  0  0  0
  4  5  1  0  0  0
  5 10  1  0  0  0
 10 12  1  0  0  0
 12 13  2  0  0  0
 13 14  1  0  0  0
 14 15  2  0  0  0
 15 18  1  0  0  0
 18 19  1  0  0  0
 18 20  2  0  0  0
 18 21  2  0  0  0
 15 16  1  0  0  0
 16 17  2  0  0  0
  5  6  2  0  0  0
  6  7  1  0  0  0
  7  8  2  0  0  0
  7  9  1  0  0  0
 31 32  1  0  0  0
 29 25  1  0  0  0
  6  1  1  0  0  0
 32 26  1  0  0  0
 17 12  1  0  0  0
 10 11  1  0  0  0
M  CHG 1   7   1
M  CHG 1   9  -1
M  END
> <minimizedAffinity>
-5.99344

> <CNNscore>
0.1146937609

> <CNNaffinity>
5.4053559303

> <CNN_VS>
0.6199606061

> <CNNaffinity_variance>
0.3002008200

$$$$
[H]c1nc(OC2([H])C([H])([H])[C@@]3([H])N(C(=O)OC(C([H])([H])[H])(C([H])([H])[H])C([H])([H])[H])[C@]([H])(C2([H])[H])C([H])([H])C3([H])[H])c([N+](=O)[O-])c(N([H])c2c([H])c([H])c(S(=O)(=O)C([H])([H])[H])c([H])c2[H])n1


 37 40  0  0  0  0  0  0  0  0999 V2000
   53.4971   -5.9009   -6.4422 C   0  0  0  0  0  0  0  0  0  0  0  0
   54.2406   -6.8602   -5.5609 N   0  0  0  0  0  0  0  0  0  0  0  0
   55.7391   -6.8222   -5.5071 C   0  0  0  0  0  0  0  0  0  0  0  0
   56.4942   -5.8247   -6.3348 N   0  0  0  0  0  0  0  0  0  0  0  0
   55.7507   -4.8654   -7.2162 C   0  0  0  0  0  0  0  0  0  0  0  0
   54.2522   -4.9034   -7.2699 C   0  0  0  0  0  0  0  0  0  0  0  0
   53.5087   -3.9441   -8.1513 N   0  0  0  0  0  0  0  0  0  0  0  0
   53.0334   -4.3831   -9.5046 O   0  0  0  0  0  0  0  0  0  0  0  0
   53.0782   -2.5146   -8.0057 O   0  0  0  0  0  0  0  0  0  0  0  0
   56.5058   -3.8679   -8.0438 N   0  0  0  0  0  0  0  0  0  0  0  0
   57.1835   -2.7044   -7.3827 H   0  0  0  0  0  0  0  0  0  0  0  0
   56.5832   -4.0340   -9.5326 C   0  0  0  0  0  0  0  0  0  0  0  0
   57.7125   -4.8099  -10.1430 C   0  0  0  0  0  0  0  0  0  0  0  0
   57.7898   -4.9760  -11.6318 C   0  0  0  0  0  0  0  0  0  0  0  0
   56.7378   -4.3661  -12.5101 C   0  0  0  0  0  0  0  0  0  0  0  0
   55.6085   -3.5903  -11.8996 C   0  0  0  0  0  0  0  0  0  0  0  0
   55.5312   -3.4242  -10.4109 C   0  0  0  0  0  0  0  0  0  0  0  0
   56.8151   -4.5322  -13.9988 S   0  0  0  0  0  0  0  0  0  0  0  0
   56.8924   -4.6982  -15.4877 C   0  0  0  0  0  0  0  0  0  0  0  0
   55.5736   -5.3736  -13.9696 O   0  0  0  0  0  0  0  0  0  0  0  0
   58.0566   -3.6908  -14.0283 O   0  0  0  0  0  0  0  0  0  0  0  0
   51.9986   -5.9389   -6.4960 O   0  0  0  0  0  0  0  0  0  0  0  0
   51.2842   -5.3809   -5.5033 C   0  0  0  0  0  0  0  0  0  0  0  0
   51.9627   -6.3514   -4.5825 O   0  0  0  0  0  0  0  0  0  0  0  0
   50.2658   -4.2970   -5.3080 N   0  0  0  0  0  0  0  0  0  0  0  0
   49.6998   -3.4153   -6.3814 C   0  0  0  0  0  0  0  0  0  0  0  0
   48.7188   -2.4779   -5.7419 C   0  0  0  0  0  0  0  0  0  0  0  0
   48.6785   -2.7803   -4.2732 C   0  0  0  0  0  0  0  0  0  0  0  0
   49.6346   -3.9046   -4.0051 C   0  0  0  0  0  0  0  0  0  0  0  0
   50.6484   -5.0230   -4.0328 C   0  0  0  0  0  0  0  0  0  0  0  0
   51.1925   -5.3030   -5.4024 C   0  0  0  0  0  0  0  0  0  0  0  0
   50.7182   -4.4991   -6.5766 C   0  0  0  0  0  0  0  0  0  0  0  0
   51.8283   -5.6609   -6.8727 O   0  0  0  0  0  0  0  0  0  0  0  0
   52.7826   -7.1892   -7.9923 C   0  0  0  0  0  0  0  0  0  0  0  0
   51.3624   -6.8674   -7.6326 C   0  0  0  0  0  0  0  0  0  0  0  0
   49.9422   -6.5455   -7.2729 C   0  0  0  0  0  0  0  0  0  0  0  0
   50.8966   -8.0738   -8.3925 C   0  0  0  0  0  0  0  0  0  0  0  0
 34 35  1  0  0  0
 35 36  1  0  0  0
 35 37  1  0  0  0
 35 33  1  0  0  0
 33 23  1  0  0  0
 23 24  2  0  0  0
 23 25  1  0  0  0
 25 26  1  0  0  0
 26 27  1  0  0  0
 27 28  1  0  0  0
 28 29  1  0  0  0
 29 30  1  0  0  0
 30 31  1  0  0  0
 31 22  1  0  0  0
 22  1  1  0  0  0
  1  2  2  0  0  0
  2  3  1  0  0  0
  3  4  2  0  0  0
  4  5  1  0  0  0
  5 10  1  0  0  0
 10 12  1  0  0  0
 12 13  2  0  0  0
 13 14  1  0  0  0
 14 15  2  0  0  0
 15 18  1  0  0  0
 18 19  1  0  0  0
 18 20  2  0  0  0
 18 21  2  0  0  0
 15 16  1  0  0  0
 16 17  2  0  0  0
  5  6  2  0  0  0
  6  7  1  0  0  0
  7  8  2  0  0  0
  7  9  1  0  0  0
 31 32  1  0  0  0
 29 25  1  0  0  0
  6  1  1  0  0  0
 32 26  1  0  0  0
 17 12  1  0  0  0
 10 11  1  0  0  0
M  CHG 1   7   1
M  CHG 1   9  -1
M  END
> <minimizedAffinity>
-6.90009

> <CNNscore>
0.1119981110

> <CNNaffinity>
6.4735627174

> <CNN_VS>
0.7250267863

> <CNNaffinity_variance>
0.1163498387

$$$$
[H]c1nc(OC2([H])C([H])([H])[C@@]3([H])N(C(=O)OC(C([H])([H])[H])(C([H])([H])[H])C([H])([H])[H])[C@]([H])(C2([H])[H])C([H])([H])C3([H])[H])c([N+](=O)[O-])c(N([H])c2c([H])c([H])c(S(=O)(=O)C([H])([H])[H])c([H])c2[H])n1


 37 40  0  0  0  0  0  0  0  0999 V2000
   61.9351   -7.3317   -9.1320 C   0  0  0  0  0  0  0  0  0  0  0  0
   61.5725   -7.5972   -7.7010 N   0  0  0  0  0  0  0  0  0  0  0  0
   60.3060   -7.0309   -7.1307 C   0  0  0  0  0  0  0  0  0  0  0  0
   59.4020   -6.1991   -7.9916 N   0  0  0  0  0  0  0  0  0  0  0  0
   59.7646   -5.9336   -9.4226 C   0  0  0  0  0  0  0  0  0  0  0  0
   61.0311   -6.4998   -9.9929 C   0  0  0  0  0  0  0  0  0  0  0  0
   61.3938   -6.2343  -11.4239 N   0  0  0  0  0  0  0  0  0  0  0  0
   60.7684   -5.0834  -12.1550 O   0  0  0  0  0  0  0  0  0  0  0  0
   62.3157   -6.8954  -12.4053 O   0  0  0  0  0  0  0  0  0  0  0  0
   58.8606   -5.1018  -10.2835 N   0  0  0  0  0  0  0  0  0  0  0  0
   59.3329   -4.6240  -11.6246 H   0  0  0  0  0  0  0  0  0  0  0  0
   57.4845   -4.7478   -9.8031 C   0  0  0  0  0  0  0  0  0  0  0  0
   57.1924   -4.7004   -8.3326 C   0  0  0  0  0  0  0  0  0  0  0  0
   55.8162   -4.3465   -7.8523 C   0  0  0  0  0  0  0  0  0  0  0  0
   54.7320   -4.0399   -8.8425 C   0  0  0  0  0  0  0  0  0  0  0  0
   55.0240   -4.0872  -10.3130 C   0  0  0  0  0  0  0  0  0  0  0  0
   56.4002   -4.4412  -10.7933 C   0  0  0  0  0  0  0  0  0  0  0  0
   53.3558   -3.6859   -8.3622 S   0  0  0  0  0  0  0  0  0  0  0  0
   51.9795   -3.3320   -7.8818 C   0  0  0  0  0  0  0  0  0  0  0  0
   53.2725   -2.6040   -9.3978 O   0  0  0  0  0  0  0  0  0  0  0  0
   53.4389   -4.7678   -7.3265 O   0  0  0  0  0  0  0  0  0  0  0  0
   63.2016   -7.8979   -9.7024 O   0  0  0  0  0  0  0  0  0  0  0  0
   63.1803   -9.1172  -10.2681 C   0  0  0  0  0  0  0  0  0  0  0  0
   62.0340   -9.4300   -9.3526 O   0  0  0  0  0  0  0  0  0  0  0  0
   63.9136   -9.8926  -11.3221 N   0  0  0  0  0  0  0  0  0  0  0  0
   65.0609   -9.3907  -12.1478 C   0  0  0  0  0  0  0  0  0  0  0  0
   65.4848  -10.4939  -13.0716 C   0  0  0  0  0  0  0  0  0  0  0  0
   64.5993  -11.6776  -12.8168 C   0  0  0  0  0  0  0  0  0  0  0  0
   63.6283  -11.3059  -11.7356 C   0  0  0  0  0  0  0  0  0  0  0  0
   62.7941  -10.6656  -10.6525 C   0  0  0  0  0  0  0  0  0  0  0  0
   63.1942   -9.2527  -10.3461 C   0  0  0  0  0  0  0  0  0  0  0  0
   64.3277   -8.6153  -11.0938 C   0  0  0  0  0  0  0  0  0  0  0  0
   63.5804   -7.7044   -9.9617 O   0  0  0  0  0  0  0  0  0  0  0  0
   65.1060   -6.2444   -9.7588 C   0  0  0  0  0  0  0  0  0  0  0  0
   64.6610   -7.4319   -8.9576 C   0  0  0  0  0  0  0  0  0  0  0  0
   64.2161   -8.6194   -8.1565 C   0  0  0  0  0  0  0  0  0  0  0  0
   65.7416   -7.1594   -7.9536 C   0  0  0  0  0  0  0  0  0  0  0  0
 34 35  1  0  0  0
 35 36  1  0  0  0
 35 37  1  0  0  0
 35 33  1  0  0  0
 33 23  1  0  0  0
 23 24  2  0  0  0
 23 25  1  0  0  0
 25 26  1  0  0  0
 26 27  1  0  0  0
 27 28  1  0  0  0
 28 29  1  0  0  0
 29 30  1  0  0  0
 30 31  1  0  0  0
 31 22  1  0  0  0
 22  1  1  0  0  0
  1  2  2  0  0  0
  2  3  1  0  0  0
  3  4  2  0  0  0
  4  5  1  0  0  0
  5 10  1  0  0  0
 10 12  1  0  0  0
 12 13  2  0  0  0
 13 14  1  0  0  0
 14 15  2  0  0  0
 15 18  1  0  0  0
 18 19  1  0  0  0
 18 20  2  0  0  0
 18 21  2  0  0  0
 15 16  1  0  0  0
 16 17  2  0  0  0
  5  6  2  0  0  0
  6  7  1  0  0  0
  7  8  2  0  0  0
  7  9  1  0  0  0
 31 32  1  0  0  0
 29 25  1  0  0  0
  6  1  1  0  0  0
 32 26  1  0  0  0
 17 12  1  0  0  0
 10 11  1  0  0  0
M  CHG 1   7   1
M  CHG 1   9  -1
M  END
> <minimizedAffinity>
-4.61050

> <CNNscore>
0.0746479928

> <CNNaffinity>
5.2398414612

> <CNN_VS>
0.3911436498

> <CNNaffinity_variance>
0.3454689384

$$$$
[H]c1nc(OC2([H])C([H])([H])[C@@]3([H])N(C(=O)OC(C([H])([H])[H])(C([H])([H])[H])C([H])([H])[H])[C@]([H])(C2([H])[H])C([H])([H])C3([H])[H])c([N+](=O)[O-])c(N([H])c2c([H])c([H])c(S(=O)(=O)C([H])([H])[H])c([H])c2[H])n1


 37 40  0  0  0  0  0  0  0  0999 V2000
   55.8097   -4.4438   -9.7277 C   0  0  0  0  0  0  0  0  0  0  0  0
   55.0583   -4.2347  -11.0089 N   0  0  0  0  0  0  0  0  0  0  0  0
   55.7792   -4.3104  -12.3221 C   0  0  0  0  0  0  0  0  0  0  0  0
   57.2516   -4.5953  -12.3541 N   0  0  0  0  0  0  0  0  0  0  0  0
   58.0030   -4.8045  -11.0728 C   0  0  0  0  0  0  0  0  0  0  0  0
   57.2821   -4.7287   -9.7596 C   0  0  0  0  0  0  0  0  0  0  0  0
   58.0335   -4.9379   -8.4784 N   0  0  0  0  0  0  0  0  0  0  0  0
   58.1685   -3.8125   -7.4958 O   0  0  0  0  0  0  0  0  0  0  0  0
   58.7556   -6.1046   -7.8723 O   0  0  0  0  0  0  0  0  0  0  0  0
   59.4754   -5.0894  -11.1048 N   0  0  0  0  0  0  0  0  0  0  0  0
   60.1197   -5.8353   -9.9741 H   0  0  0  0  0  0  0  0  0  0  0  0
   60.3034   -4.6283  -12.2675 C   0  0  0  0  0  0  0  0  0  0  0  0
   61.6133   -5.2951  -12.5668 C   0  0  0  0  0  0  0  0  0  0  0  0
   62.4412   -4.8340  -13.7295 C   0  0  0  0  0  0  0  0  0  0  0  0
   61.9592   -3.7060  -14.5929 C   0  0  0  0  0  0  0  0  0  0  0  0
   60.6493   -3.0392  -14.2936 C   0  0  0  0  0  0  0  0  0  0  0  0
   59.8214   -3.5004  -13.1309 C   0  0  0  0  0  0  0  0  0  0  0  0
   62.7871   -3.2449  -15.7556 S   0  0  0  0  0  0  0  0  0  0  0  0
   63.6151   -2.7837  -16.9183 C   0  0  0  0  0  0  0  0  0  0  0  0
   62.6189   -4.5855  -16.4071 O   0  0  0  0  0  0  0  0  0  0  0  0
   62.9553   -1.9042  -15.1041 O   0  0  0  0  0  0  0  0  0  0  0  0
   55.0889   -4.3681   -8.4144 O   0  0  0  0  0  0  0  0  0  0  0  0
   53.9548   -3.6521   -8.3224 C   0  0  0  0  0  0  0  0  0  0  0  0
   54.7145   -2.5240   -8.9551 O   0  0  0  0  0  0  0  0  0  0  0  0
   52.5459   -3.8151   -7.8343 N   0  0  0  0  0  0  0  0  0  0  0  0
   51.9641   -5.0522   -7.2171 C   0  0  0  0  0  0  0  0  0  0  0  0
   50.5300   -4.7713   -6.8790 C   0  0  0  0  0  0  0  0  0  0  0  0
   50.2254   -3.3604   -7.2872 C   0  0  0  0  0  0  0  0  0  0  0  0
   51.4713   -2.7694   -7.8776 C   0  0  0  0  0  0  0  0  0  0  0  0
   52.8455   -2.4455   -8.4123 C   0  0  0  0  0  0  0  0  0  0  0  0
   53.8138   -3.5860   -8.3028 C   0  0  0  0  0  0  0  0  0  0  0  0
   53.3731   -4.8893   -7.7053 C   0  0  0  0  0  0  0  0  0  0  0  0
   54.9231   -4.7925   -8.2130 O   0  0  0  0  0  0  0  0  0  0  0  0
   55.0504   -6.6459   -7.1889 C   0  0  0  0  0  0  0  0  0  0  0  0
   55.4195   -5.2282   -6.8663 C   0  0  0  0  0  0  0  0  0  0  0  0
   55.7887   -3.8106   -6.5437 C   0  0  0  0  0  0  0  0  0  0  0  0
   55.9160   -5.6640   -5.5196 C   0  0  0  0  0  0  0  0  0  0  0  0
 34 35  1  0  0  0
 35 36  1  0  0  0
 35 37  1  0  0  0
 35 33  1  0  0  0
 33 23  1  0  0  0
 23 24  2  0  0  0
 23 25  1  0  0  0
 25 26  1  0  0  0
 26 27  1  0  0  0
 27 28  1  0  0  0
 28 29  1  0  0  0
 29 30  1  0  0  0
 30 31  1  0  0  0
 31 22  1  0  0  0
 22  1  1  0  0  0
  1  2  2  0  0  0
  2  3  1  0  0  0
  3  4  2  0  0  0
  4  5  1  0  0  0
  5 10  1  0  0  0
 10 12  1  0  0  0
 12 13  2  0  0  0
 13 14  1  0  0  0
 14 15  2  0  0  0
 15 18  1  0  0  0
 18 19  1  0  0  0
 18 20  2  0  0  0
 18 21  2  0  0  0
 15 16  1  0  0  0
 16 17  2  0  0  0
  5  6  2  0  0  0
  6  7  1  0  0  0
  7  8  2  0  0  0
  7  9  1  0  0  0
 31 32  1  0  0  0
 29 25  1  0  0  0
  6  1  1  0  0  0
 32 26  1  0  0  0
 17 12  1  0  0  0
 10 11  1  0  0  0
M  CHG 1   7   1
M  CHG 1   9  -1
M  END
> <minimizedAffinity>
-5.37591

> <CNNscore>
0.0734579042

> <CNNaffinity>
5.8466782570

> <CNN_VS>
0.4294847250

> <CNNaffinity_variance>
0.2356244326

$$$$
[H]c1nc(OC2([H])C([H])([H])[C@@]3([H])N(C(=O)OC(C([H])([H])[H])(C([H])([H])[H])C([H])([H])[H])[C@]([H])(C2([H])[H])C([H])([H])C3([H])[H])c([N+](=O)[O-])c(N([H])c2c([H])c([H])c(S(=O)(=O)C([H])([H])[H])c([H])c2[H])n1


 37 40  0  0  0  0  0  0  0  0999 V2000
   58.0579   -8.4619   -1.5395 C   0  0  0  0  0  0  0  0  0  0  0  0
   57.7025   -9.4080   -0.4311 N   0  0  0  0  0  0  0  0  0  0  0  0
   58.6432  -10.5159   -0.0602 C   0  0  0  0  0  0  0  0  0  0  0  0
   59.9394  -10.6776   -0.7977 N   0  0  0  0  0  0  0  0  0  0  0  0
   60.2948   -9.7315   -1.9060 C   0  0  0  0  0  0  0  0  0  0  0  0
   59.3541   -8.6236   -2.2769 C   0  0  0  0  0  0  0  0  0  0  0  0
   59.7095   -7.6774   -3.3852 N   0  0  0  0  0  0  0  0  0  0  0  0
   60.6933   -6.5717   -3.1409 O   0  0  0  0  0  0  0  0  0  0  0  0
   59.2870   -7.5455   -4.8185 O   0  0  0  0  0  0  0  0  0  0  0  0
   61.5910   -9.8932   -2.6435 N   0  0  0  0  0  0  0  0  0  0  0  0
   62.8688   -9.4012   -2.0309 H   0  0  0  0  0  0  0  0  0  0  0  0
   61.6093  -10.5469   -3.9934 C   0  0  0  0  0  0  0  0  0  0  0  0
   62.2045   -9.8274   -5.1673 C   0  0  0  0  0  0  0  0  0  0  0  0
   62.2227  -10.4812   -6.5171 C   0  0  0  0  0  0  0  0  0  0  0  0
   61.6458  -11.8546   -6.6932 C   0  0  0  0  0  0  0  0  0  0  0  0
   61.0506  -12.5741   -5.5193 C   0  0  0  0  0  0  0  0  0  0  0  0
   61.0324  -11.9203   -4.1694 C   0  0  0  0  0  0  0  0  0  0  0  0
   61.6640  -12.5083   -8.0430 S   0  0  0  0  0  0  0  0  0  0  0  0
   61.6823  -13.1622   -9.3929 C   0  0  0  0  0  0  0  0  0  0  0  0
   61.6541  -11.1585   -8.6970 O   0  0  0  0  0  0  0  0  0  0  0  0
   61.6740  -13.8583   -7.3891 O   0  0  0  0  0  0  0  0  0  0  0  0
   57.1172   -7.3540   -1.9104 O   0  0  0  0  0  0  0  0  0  0  0  0
   55.8374   -7.6365   -2.2094 C   0  0  0  0  0  0  0  0  0  0  0  0
   56.3465   -8.1594   -3.5199 O   0  0  0  0  0  0  0  0  0  0  0  0
   54.4753   -7.5214   -1.5918 N   0  0  0  0  0  0  0  0  0  0  0  0
   54.1663   -6.9557   -0.2374 C   0  0  0  0  0  0  0  0  0  0  0  0
   52.6830   -7.0364   -0.0287 C   0  0  0  0  0  0  0  0  0  0  0  0
   52.0754   -7.6521   -1.2541 C   0  0  0  0  0  0  0  0  0  0  0  0
   53.1831   -7.9519   -2.2201 C   0  0  0  0  0  0  0  0  0  0  0  0
   54.4758   -8.1372   -2.9775 C   0  0  0  0  0  0  0  0  0  0  0  0
   55.6832   -7.6615   -2.2250 C   0  0  0  0  0  0  0  0  0  0  0  0
   55.5284   -7.0708   -0.8550 C   0  0  0  0  0  0  0  0  0  0  0  0
   57.0447   -7.1609   -1.4570 O   0  0  0  0  0  0  0  0  0  0  0  0
   57.1050   -5.6627   -2.9575 C   0  0  0  0  0  0  0  0  0  0  0  0
   57.4282   -5.7112   -1.4935 C   0  0  0  0  0  0  0  0  0  0  0  0
   57.7514   -5.7598   -0.0296 C   0  0  0  0  0  0  0  0  0  0  0  0
   57.8117   -4.2615   -1.5301 C   0  0  0  0  0  0  0  0  0  0  0  0
 34 35  1  0  0  0
 35 36  1  0  0  0
 35 37  1  0  0  0
 35 33  1  0  0  0
 33 23  1  0  0  0
 23 24  2  0  0  0
 23 25  1  0  0  0
 25 26  1  0  0  0
 26 27  1  0  0  0
 27 28  1  0  0  0
 28 29  1  0  0  0
 29 30  1  0  0  0
 30 31  1  0  0  0
 31 22  1  0  0  0
 22  1  1  0  0  0
  1  2  2  0  0  0
  2  3  1  0  0  0
  3  4  2  0  0  0
  4  5  1  0  0  0
  5 10  1  0  0  0
 10 12  1  0  0  0
 12 13  2  0  0  0
 13 14  1  0  0  0
 14 15  2  0  0  0
 15 18  1  0  0  0
 18 19  1  0  0  0
 18 20  2  0  0  0
 18 21  2  0  0  0
 15 16  1  0  0  0
 16 17  2  0  0  0
  5  6  2  0  0  0
  6  7  1  0  0  0
  7  8  2  0  0  0
  7  9  1  0  0  0
 31 32  1  0  0  0
 29 25  1  0  0  0
  6  1  1  0  0  0
 32 26  1  0  0  0
 17 12  1  0  0  0
 10 11  1  0  0  0
M  CHG 1   7   1
M  CHG 1   9  -1
M  END
> <minimizedAffinity>
-5.51643

> <CNNscore>
0.0678562373

> <CNNaffinity>
5.3707208633

> <CNN_VS>
0.3644368947

> <CNNaffinity_variance>
0.1749565154

$$$$
[H]c1nc(OC2([H])C([H])([H])[C@@]3([H])N(C(=O)OC(C([H])([H])[H])(C([H])([H])[H])C([H])([H])[H])[C@]([H])(C2([H])[H])C([H])([H])C3([H])[H])c([N+](=O)[O-])c(N([H])c2c([H])c([H])c(S(=O)(=O)C([H])([H])[H])c([H])c2[H])n1


 37 40  0  0  0  0  0  0  0  0999 V2000
   56.5039   -5.9771   -2.0324 C   0  0  0  0  0  0  0  0  0  0  0  0
   56.7936   -4.5105   -2.1564 N   0  0  0  0  0  0  0  0  0  0  0  0
   58.1286   -3.9716   -1.7358 C   0  0  0  0  0  0  0  0  0  0  0  0
   59.1741   -4.8991   -1.1910 N   0  0  0  0  0  0  0  0  0  0  0  0
   58.8845   -6.3656   -1.0670 C   0  0  0  0  0  0  0  0  0  0  0  0
   57.5494   -6.9046   -1.4877 C   0  0  0  0  0  0  0  0  0  0  0  0
   57.2598   -8.3711   -1.3636 N   0  0  0  0  0  0  0  0  0  0  0  0
   56.5393   -8.8938   -0.1562 O   0  0  0  0  0  0  0  0  0  0  0  0
   57.5366   -9.5649   -2.2287 O   0  0  0  0  0  0  0  0  0  0  0  0
   59.9300   -7.2931   -0.5222 N   0  0  0  0  0  0  0  0  0  0  0  0
   60.2280   -7.3067    0.9478 H   0  0  0  0  0  0  0  0  0  0  0  0
   60.6774   -8.2070   -1.4476 C   0  0  0  0  0  0  0  0  0  0  0  0
   61.1420   -9.5484   -0.9634 C   0  0  0  0  0  0  0  0  0  0  0  0
   61.8894  -10.4622   -1.8888 C   0  0  0  0  0  0  0  0  0  0  0  0
   62.1722  -10.0345   -3.2985 C   0  0  0  0  0  0  0  0  0  0  0  0
   61.7075   -8.6930   -3.7827 C   0  0  0  0  0  0  0  0  0  0  0  0
   60.9601   -7.7793   -2.8573 C   0  0  0  0  0  0  0  0  0  0  0  0
   62.9195  -10.9482   -4.2239 S   0  0  0  0  0  0  0  0  0  0  0  0
   63.6670  -11.8620   -5.1494 C   0  0  0  0  0  0  0  0  0  0  0  0
   62.9334  -12.0100   -3.1644 O   0  0  0  0  0  0  0  0  0  0  0  0
   62.9057   -9.8865   -5.2835 O   0  0  0  0  0  0  0  0  0  0  0  0
   55.1688   -6.5162   -2.4531 O   0  0  0  0  0  0  0  0  0  0  0  0
   54.1949   -6.6539   -1.5368 C   0  0  0  0  0  0  0  0  0  0  0  0
   54.6504   -5.3390   -0.9770 O   0  0  0  0  0  0  0  0  0  0  0  0
   53.1136   -7.6255   -1.1666 N   0  0  0  0  0  0  0  0  0  0  0  0
   52.8104   -8.9164   -1.8678 C   0  0  0  0  0  0  0  0  0  0  0  0
   51.6552   -9.5655   -1.1648 C   0  0  0  0  0  0  0  0  0  0  0  0
   51.2444   -8.6757   -0.0293 C   0  0  0  0  0  0  0  0  0  0  0  0
   52.1458   -7.4768   -0.0304 C   0  0  0  0  0  0  0  0  0  0  0  0
   53.1801   -6.4037   -0.2710 C   0  0  0  0  0  0  0  0  0  0  0  0
   54.0765   -6.6885   -1.4395 C   0  0  0  0  0  0  0  0  0  0  0  0
   53.8916   -7.9448   -2.2379 C   0  0  0  0  0  0  0  0  0  0  0  0
   55.0912   -6.9387   -2.7053 O   0  0  0  0  0  0  0  0  0  0  0  0
   54.0109   -5.3776   -3.6518 C   0  0  0  0  0  0  0  0  0  0  0  0
   54.6091   -6.6775   -4.1015 C   0  0  0  0  0  0  0  0  0  0  0  0
   55.2073   -7.9775   -4.5512 C   0  0  0  0  0  0  0  0  0  0  0  0
   54.1271   -6.4164   -5.4977 C   0  0  0  0  0  0  0  0  0  0  0  0
 34 35  1  0  0  0
 35 36  1  0  0  0
 35 37  1  0  0  0
 35 33  1  0  0  0
 33 23  1  0  0  0
 23 24  2  0  0  0
 23 25  1  0  0  0
 25 26  1  0  0  0
 26 27  1  0  0  0
 27 28  1  0  0  0
 28 29  1  0  0  0
 29 30  1  0  0  0
 30 31  1  0  0  0
 31 22  1  0  0  0
 22  1  1  0  0  0
  1  2  2  0  0  0
  2  3  1  0  0  0
  3  4  2  0  0  0
  4  5  1  0  0  0
  5 10  1  0  0  0
 10 12  1  0  0  0
 12 13  2  0  0  0
 13 14  1  0  0  0
 14 15  2  0  0  0
 15 18  1  0  0  0
 18 19  1  0  0  0
 18 20  2  0  0  0
 18 21  2  0  0  0
 15 16  1  0  0  0
 16 17  2  0  0  0
  5  6  2  0  0  0
  6  7  1  0  0  0
  7  8  2  0  0  0
  7  9  1  0  0  0
 31 32  1  0  0  0
 29 25  1  0  0  0
  6  1  1  0  0  0
 32 26  1  0  0  0
 17 12  1  0  0  0
 10 11  1  0  0  0
M  CHG 1   7   1
M  CHG 1   9  -1
M  END
> <minimizedAffinity>
-6.05050

> <CNNscore>
0.0674555972

> <CNNaffinity>
5.5329079628

> <CNN_VS>
0.3732255995

> <CNNaffinity_variance>
0.2324727476

$$$$
[H]c1c([H])c(N([H])c2nc(N3C([H])([H])C([H])([H])C([H])([H])C3([H])[H])c3c([H])c([H])c([H])c([H])c3n2)c([H])c([H])c1OC([H])([H])[H]


 25 28  0  0  0  0  0  0  0  0999 V2000
   53.5646   -3.6605   -8.7164 C   0  0  0  0  0  0  0  0  0  0  0  0
   53.8602   -4.5978   -7.8120 N   0  0  0  0  0  0  0  0  0  0  0  0
   53.0576   -4.9246   -6.7784 C   0  0  0  0  0  0  0  0  0  0  0  0
   51.8651   -4.2497   -6.6504 C   0  0  0  0  0  0  0  0  0  0  0  0
   50.9987   -4.5139   -5.6228 C   0  0  0  0  0  0  0  0  0  0  0  0
   49.8191   -3.7931   -5.5476 C   0  0  0  0  0  0  0  0  0  0  0  0
   49.4839   -2.8269   -6.4585 C   0  0  0  0  0  0  0  0  0  0  0  0
   50.3381   -2.5499   -7.4900 C   0  0  0  0  0  0  0  0  0  0  0  0
   51.5317   -3.2637   -7.5845 C   0  0  0  0  0  0  0  0  0  0  0  0
   52.4043   -3.0251   -8.5677 N   0  0  0  0  0  0  0  0  0  0  0  0
   53.4465   -5.9651   -5.8821 N   0  0  0  0  0  0  0  0  0  0  0  0
   54.3815   -7.0158   -6.1288 C   0  0  0  0  0  0  0  0  0  0  0  0
   54.8538   -7.4865   -4.7511 C   0  0  0  0  0  0  0  0  0  0  0  0
   54.2433   -6.5000   -3.8130 C   0  0  0  0  0  0  0  0  0  0  0  0
   52.9455   -6.1216   -4.5374 C   0  0  0  0  0  0  0  0  0  0  0  0
   54.4748   -3.3742   -9.7554 N   0  0  0  0  0  0  0  0  0  0  0  0
   54.1682   -2.6020  -10.4216 H   0  0  0  0  0  0  0  0  0  0  0  0
   58.2979   -5.1745  -10.2710 C   0  0  0  0  0  0  0  0  0  0  0  0
   57.6116   -4.6849  -11.3529 C   0  0  0  0  0  0  0  0  0  0  0  0
   56.3441   -4.0911  -11.2299 C   0  0  0  0  0  0  0  0  0  0  0  0
   55.7253   -3.9697  -10.0132 C   0  0  0  0  0  0  0  0  0  0  0  0
   56.4439   -4.4773   -8.9179 C   0  0  0  0  0  0  0  0  0  0  0  0
   57.6836   -5.0571   -9.0468 C   0  0  0  0  0  0  0  0  0  0  0  0
   60.2797   -6.1683   -9.2690 C   0  0  0  0  0  0  0  0  0  0  0  0
   59.5479   -5.7577  -10.4079 O   0  0  0  0  0  0  0  0  0  0  0  0
 24 25  1  0  0  0
 25 18  1  0  0  0
 18 19  2  0  0  0
 19 20  1  0  0  0
 20 21  2  0  0  0
 21 16  1  0  0  0
 16  1  1  0  0  0
  1  2  2  0  0  0
  2  3  1  0  0  0
  3 11  1  0  0  0
 11 12  1  0  0  0
 12 13  1  0  0  0
 13 14  1  0  0  0
 14 15  1  0  0  0
  3  4  2  0  0  0
  4  5  1  0  0  0
  5  6  2  0  0  0
  6  7  1  0  0  0
  7  8  2  0  0  0
  8  9  1  0  0  0
  9 10  2  0  0  0
 21 22  1  0  0  0
 22 23  2  0  0  0
 23 18  1  0  0  0
 10  1  1  0  0  0
 15 11  1  0  0  0
  9  4  1  0  0  0
 16 17  1  0  0  0
M  END
> <minimizedAffinity>
-10.45363

> <CNNscore>
0.8690281510

> <CNNaffinity>
6.8151893616

> <CNN_VS>
5.9225912094

> <CNNaffinity_variance>
0.1058757529

$$$$
[H]c1c([H])c(N([H])c2nc(N3C([H])([H])C([H])([H])C([H])([H])C3([H])[H])c3c([H])c([H])c([H])c([H])c3n2)c([H])c([H])c1OC([H])([H])[H]


 25 28  0  0  0  0  0  0  0  0999 V2000
   54.6118   -3.5593   -9.7517 C   0  0  0  0  0  0  0  0  0  0  0  0
   54.9932   -3.7119  -11.0225 N   0  0  0  0  0  0  0  0  0  0  0  0
   56.1622   -4.2727  -11.3944 C   0  0  0  0  0  0  0  0  0  0  0  0
   57.0101   -4.7116  -10.4033 C   0  0  0  0  0  0  0  0  0  0  0  0
   58.2203   -5.2825  -10.6962 C   0  0  0  0  0  0  0  0  0  0  0  0
   59.0294   -5.6954   -9.6515 C   0  0  0  0  0  0  0  0  0  0  0  0
   58.6688   -5.5560   -8.3376 C   0  0  0  0  0  0  0  0  0  0  0  0
   57.4644   -4.9871   -8.0276 C   0  0  0  0  0  0  0  0  0  0  0  0
   56.6342   -4.5639   -9.0643 C   0  0  0  0  0  0  0  0  0  0  0  0
   55.4518   -3.9940   -8.8148 N   0  0  0  0  0  0  0  0  0  0  0  0
   56.4658   -4.4219  -12.7811 N   0  0  0  0  0  0  0  0  0  0  0  0
   55.9718   -5.4215  -13.6730 C   0  0  0  0  0  0  0  0  0  0  0  0
   56.1204   -4.8365  -15.0795 C   0  0  0  0  0  0  0  0  0  0  0  0
   56.5465   -3.4281  -14.8325 C   0  0  0  0  0  0  0  0  0  0  0  0
   57.3438   -3.5531  -13.5283 C   0  0  0  0  0  0  0  0  0  0  0  0
   53.3768   -2.9447   -9.4572 N   0  0  0  0  0  0  0  0  0  0  0  0
   53.0973   -2.1577  -10.1181 H   0  0  0  0  0  0  0  0  0  0  0  0
   50.5568   -3.6007   -6.3363 C   0  0  0  0  0  0  0  0  0  0  0  0
   51.5707   -4.4986   -6.5533 C   0  0  0  0  0  0  0  0  0  0  0  0
   52.5176   -4.3263   -7.5769 C   0  0  0  0  0  0  0  0  0  0  0  0
   52.4760   -3.2435   -8.4160 C   0  0  0  0  0  0  0  0  0  0  0  0
   51.4304   -2.3360   -8.1779 C   0  0  0  0  0  0  0  0  0  0  0  0
   50.5076   -2.5121   -7.1743 C   0  0  0  0  0  0  0  0  0  0  0  0
   48.7303   -2.7496   -4.9729 C   0  0  0  0  0  0  0  0  0  0  0  0
   49.6298   -3.7840   -5.3221 O   0  0  0  0  0  0  0  0  0  0  0  0
 24 25  1  0  0  0
 25 18  1  0  0  0
 18 19  2  0  0  0
 19 20  1  0  0  0
 20 21  2  0  0  0
 21 16  1  0  0  0
 16  1  1  0  0  0
  1  2  2  0  0  0
  2  3  1  0  0  0
  3 11  1  0  0  0
 11 12  1  0  0  0
 12 13  1  0  0  0
 13 14  1  0  0  0
 14 15  1  0  0  0
  3  4  2  0  0  0
  4  5  1  0  0  0
  5  6  2  0  0  0
  6  7  1  0  0  0
  7  8  2  0  0  0
  8  9  1  0  0  0
  9 10  2  0  0  0
 21 22  1  0  0  0
 22 23  2  0  0  0
 23 18  1  0  0  0
 10  1  1  0  0  0
 15 11  1  0  0  0
  9  4  1  0  0  0
 16 17  1  0  0  0
M  END
> <minimizedAffinity>
-9.29145

> <CNNscore>
0.7869092822

> <CNNaffinity>
6.5937070847

> <CNN_VS>
5.1886491776

> <CNNaffinity_variance>
0.0283794142

$$$$
[H]c1c([H])c(N([H])c2nc(N3C([H])([H])C([H])([H])C([H])([H])C3([H])[H])c3c([H])c([H])c([H])c([H])c3n2)c([H])c([H])c1OC([H])([H])[H]


 25 28  0  0  0  0  0  0  0  0999 V2000
   53.4737   -3.8284   -8.3626 C   0  0  0  0  0  0  0  0  0  0  0  0
   53.9181   -4.4456   -7.2647 N   0  0  0  0  0  0  0  0  0  0  0  0
   55.1536   -4.9740   -7.1474 C   0  0  0  0  0  0  0  0  0  0  0  0
   56.0035   -4.8703   -8.2249 C   0  0  0  0  0  0  0  0  0  0  0  0
   57.2704   -5.3899   -8.1910 C   0  0  0  0  0  0  0  0  0  0  0  0
   58.0717   -5.2581   -9.3122 C   0  0  0  0  0  0  0  0  0  0  0  0
   57.6488   -4.6299  -10.4534 C   0  0  0  0  0  0  0  0  0  0  0  0
   56.3864   -4.1065  -10.5044 C   0  0  0  0  0  0  0  0  0  0  0  0
   55.5626   -4.2283   -9.3865 C   0  0  0  0  0  0  0  0  0  0  0  0
   54.3180   -3.7422   -9.3882 N   0  0  0  0  0  0  0  0  0  0  0  0
   55.5479   -5.5857   -5.9195 N   0  0  0  0  0  0  0  0  0  0  0  0
   55.9860   -4.9319   -4.7281 C   0  0  0  0  0  0  0  0  0  0  0  0
   55.7418   -5.9274   -3.5915 C   0  0  0  0  0  0  0  0  0  0  0  0
   54.9964   -7.0392   -4.2506 C   0  0  0  0  0  0  0  0  0  0  0  0
   55.5598   -7.0086   -5.6767 C   0  0  0  0  0  0  0  0  0  0  0  0
   52.1580   -3.3210   -8.4001 N   0  0  0  0  0  0  0  0  0  0  0  0
   51.8535   -2.9304   -9.3429 H   0  0  0  0  0  0  0  0  0  0  0  0
   49.3571   -3.4289   -5.1961 C   0  0  0  0  0  0  0  0  0  0  0  0
   49.3167   -2.4133   -6.1171 C   0  0  0  0  0  0  0  0  0  0  0  0
   50.2266   -2.3336   -7.1848 C   0  0  0  0  0  0  0  0  0  0  0  0
   51.2074   -3.2744   -7.3614 C   0  0  0  0  0  0  0  0  0  0  0  0
   51.2323   -4.3058   -6.4079 C   0  0  0  0  0  0  0  0  0  0  0  0
   50.3386   -4.3764   -5.3659 C   0  0  0  0  0  0  0  0  0  0  0  0
   47.2194   -2.8044   -4.2164 C   0  0  0  0  0  0  0  0  0  0  0  0
   48.4524   -3.4943   -4.1478 O   0  0  0  0  0  0  0  0  0  0  0  0
 24 25  1  0  0  0
 25 18  1  0  0  0
 18 19  2  0  0  0
 19 20  1  0  0  0
 20 21  2  0  0  0
 21 16  1  0  0  0
 16  1  1  0  0  0
  1  2  2  0  0  0
  2  3  1  0  0  0
  3 11  1  0  0  0
 11 12  1  0  0  0
 12 13  1  0  0  0
 13 14  1  0  0  0
 14 15  1  0  0  0
  3  4  2  0  0  0
  4  5  1  0  0  0
  5  6  2  0  0  0
  6  7  1  0  0  0
  7  8  2  0  0  0
  8  9  1  0  0  0
  9 10  2  0  0  0
 21 22  1  0  0  0
 22 23  2  0  0  0
 23 18  1  0  0  0
 10  1  1  0  0  0
 15 11  1  0  0  0
  9  4  1  0  0  0
 16 17  1  0  0  0
M  END
> <minimizedAffinity>
-9.69888

> <CNNscore>
0.7843331099

> <CNNaffinity>
6.9342679977

> <CNN_VS>
5.4387760162

> <CNNaffinity_variance>
0.1391544342

$$$$
[H]c1c([H])c(N([H])c2nc(N3C([H])([H])C([H])([H])C([H])([H])C3([H])[H])c3c([H])c([H])c([H])c([H])c3n2)c([H])c([H])c1OC([H])([H])[H]


 25 28  0  0  0  0  0  0  0  0999 V2000
   54.4869   -4.2454   -9.0533 C   0  0  0  0  0  0  0  0  0  0  0  0
   53.2271   -3.9545   -8.7184 N   0  0  0  0  0  0  0  0  0  0  0  0
   52.6456   -4.3475   -7.5665 C   0  0  0  0  0  0  0  0  0  0  0  0
   53.3972   -5.0929   -6.6872 C   0  0  0  0  0  0  0  0  0  0  0  0
   52.8782   -5.5403   -5.5011 C   0  0  0  0  0  0  0  0  0  0  0  0
   53.6857   -6.2925   -4.6652 C   0  0  0  0  0  0  0  0  0  0  0  0
   54.9817   -6.6074   -4.9763 C   0  0  0  0  0  0  0  0  0  0  0  0
   55.5152   -6.1696   -6.1571 C   0  0  0  0  0  0  0  0  0  0  0  0
   54.7194   -5.4109   -7.0139 C   0  0  0  0  0  0  0  0  0  0  0  0
   55.1898   -4.9668   -8.1829 N   0  0  0  0  0  0  0  0  0  0  0  0
   51.3020   -3.9579   -7.2834 N   0  0  0  0  0  0  0  0  0  0  0  0
   50.2620   -4.7696   -6.7371 C   0  0  0  0  0  0  0  0  0  0  0  0
   49.2536   -3.7972   -6.1204 C   0  0  0  0  0  0  0  0  0  0  0  0
   49.9299   -2.4717   -6.2295 C   0  0  0  0  0  0  0  0  0  0  0  0
   50.7653   -2.6363   -7.5051 C   0  0  0  0  0  0  0  0  0  0  0  0
   55.0053   -3.8054  -10.2892 N   0  0  0  0  0  0  0  0  0  0  0  0
   54.3249   -3.2474  -10.8892 H   0  0  0  0  0  0  0  0  0  0  0  0
   58.8193   -4.2965  -12.1154 C   0  0  0  0  0  0  0  0  0  0  0  0
   58.5450   -4.8967  -10.9130 C   0  0  0  0  0  0  0  0  0  0  0  0
   57.3035   -4.7544  -10.2707 C   0  0  0  0  0  0  0  0  0  0  0  0
   56.2961   -4.0034  -10.8178 C   0  0  0  0  0  0  0  0  0  0  0  0
   56.5966   -3.3968  -12.0488 C   0  0  0  0  0  0  0  0  0  0  0  0
   57.8141   -3.5407  -12.6707 C   0  0  0  0  0  0  0  0  0  0  0  0
   60.4347   -3.5810  -13.7881 C   0  0  0  0  0  0  0  0  0  0  0  0
   60.0491   -4.4461  -12.7374 O   0  0  0  0  0  0  0  0  0  0  0  0
 24 25  1  0  0  0
 25 18  1  0  0  0
 18 19  2  0  0  0
 19 20  1  0  0  0
 20 21  2  0  0  0
 21 16  1  0  0  0
 16  1  1  0  0  0
  1  2  2  0  0  0
  2  3  1  0  0  0
  3 11  1  0  0  0
 11 12  1  0  0  0
 12 13  1  0  0  0
 13 14  1  0  0  0
 14 15  1  0  0  0
  3  4  2  0  0  0
  4  5  1  0  0  0
  5  6  2  0  0  0
  6  7  1  0  0  0
  7  8  2  0  0  0
  8  9  1  0  0  0
  9 10  2  0  0  0
 21 22  1  0  0  0
 22 23  2  0  0  0
 23 18  1  0  0  0
 10  1  1  0  0  0
 15 11  1  0  0  0
  9  4  1  0  0  0
 16 17  1  0  0  0
M  END
> <minimizedAffinity>
-8.66231

> <CNNscore>
0.7291656137

> <CNNaffinity>
6.5751943588

> <CNN_VS>
4.7944054604

> <CNNaffinity_variance>
0.0643696189

$$$$
[H]c1c([H])c(N([H])c2nc(N3C([H])([H])C([H])([H])C([H])([H])C3([H])[H])c3c([H])c([H])c([H])c([H])c3n2)c([H])c([H])c1OC([H])([H])[H]


 25 28  0  0  0  0  0  0  0  0999 V2000
   53.5901   -4.4525   -7.9399 C   0  0  0  0  0  0  0  0  0  0  0  0
   54.4004   -5.1182   -7.1130 N   0  0  0  0  0  0  0  0  0  0  0  0
   54.0147   -5.6122   -5.9186 C   0  0  0  0  0  0  0  0  0  0  0  0
   52.7086   -5.4159   -5.5319 C   0  0  0  0  0  0  0  0  0  0  0  0
   52.2401   -5.8762   -4.3298 C   0  0  0  0  0  0  0  0  0  0  0  0
   50.9173   -5.6380   -3.9980 C   0  0  0  0  0  0  0  0  0  0  0  0
   50.0588   -4.9608   -4.8227 C   0  0  0  0  0  0  0  0  0  0  0  0
   50.5106   -4.4936   -6.0260 C   0  0  0  0  0  0  0  0  0  0  0  0
   51.8393   -4.7221   -6.3798 C   0  0  0  0  0  0  0  0  0  0  0  0
   52.3324   -4.2788   -7.5398 N   0  0  0  0  0  0  0  0  0  0  0  0
   54.9470   -6.3397   -5.1193 N   0  0  0  0  0  0  0  0  0  0  0  0
   55.8276   -5.8167   -4.1244 C   0  0  0  0  0  0  0  0  0  0  0  0
   56.1709   -6.9948   -3.2096 C   0  0  0  0  0  0  0  0  0  0  0  0
   55.2780   -8.0882   -3.6927 C   0  0  0  0  0  0  0  0  0  0  0  0
   55.1493   -7.7674   -5.1869 C   0  0  0  0  0  0  0  0  0  0  0  0
   54.0872   -3.9568   -9.1635 N   0  0  0  0  0  0  0  0  0  0  0  0
   53.4157   -3.3278   -9.6998 H   0  0  0  0  0  0  0  0  0  0  0  0
   57.7784   -4.6082  -11.1817 C   0  0  0  0  0  0  0  0  0  0  0  0
   57.6724   -4.8529   -9.8363 C   0  0  0  0  0  0  0  0  0  0  0  0
   56.4767   -4.6436   -9.1287 C   0  0  0  0  0  0  0  0  0  0  0  0
   55.3472   -4.1814   -9.7523 C   0  0  0  0  0  0  0  0  0  0  0  0
   55.4762   -3.9365  -11.1296 C   0  0  0  0  0  0  0  0  0  0  0  0
   56.6499   -4.1436  -11.8145 C   0  0  0  0  0  0  0  0  0  0  0  0
   59.4147   -3.8891  -12.8324 C   0  0  0  0  0  0  0  0  0  0  0  0
   58.9650   -4.8196  -11.8664 O   0  0  0  0  0  0  0  0  0  0  0  0
 24 25  1  0  0  0
 25 18  1  0  0  0
 18 19  2  0  0  0
 19 20  1  0  0  0
 20 21  2  0  0  0
 21 16  1  0  0  0
 16  1  1  0  0  0
  1  2  2  0  0  0
  2  3  1  0  0  0
  3 11  1  0  0  0
 11 12  1  0  0  0
 12 13  1  0  0  0
 13 14  1  0  0  0
 14 15  1  0  0  0
  3  4  2  0  0  0
  4  5  1  0  0  0
  5  6  2  0  0  0
  6  7  1  0  0  0
  7  8  2  0  0  0
  8  9  1  0  0  0
  9 10  2  0  0  0
 21 22  1  0  0  0
 22 23  2  0  0  0
 23 18  1  0  0  0
 10  1  1  0  0  0
 15 11  1  0  0  0
  9  4  1  0  0  0
 16 17  1  0  0  0
M  END
> <minimizedAffinity>
-8.91248

> <CNNscore>
0.4640495479

> <CNNaffinity>
6.3251013756

> <CNN_VS>
2.9351603985

> <CNNaffinity_variance>
0.1631846875

$$$$
[H]c1c([H])c(N([H])c2nc(N3C([H])([H])C([H])([H])C([H])([H])C3([H])[H])c3c([H])c([H])c([H])c([H])c3n2)c([H])c([H])c1OC([H])([H])[H]


 25 28  0  0  0  0  0  0  0  0999 V2000
   52.6598   -4.2113   -7.7214 C   0  0  0  0  0  0  0  0  0  0  0  0
   52.8650   -5.0465   -6.6996 N   0  0  0  0  0  0  0  0  0  0  0  0
   52.0556   -5.1315   -5.6240 C   0  0  0  0  0  0  0  0  0  0  0  0
   50.9547   -4.3069   -5.5795 C   0  0  0  0  0  0  0  0  0  0  0  0
   50.0892   -4.3234   -4.5180 C   0  0  0  0  0  0  0  0  0  0  0  0
   49.0053   -3.4624   -4.5322 C   0  0  0  0  0  0  0  0  0  0  0  0
   48.7638   -2.5948   -5.5641 C   0  0  0  0  0  0  0  0  0  0  0  0
   49.6187   -2.5647   -6.6312 C   0  0  0  0  0  0  0  0  0  0  0  0
   50.7169   -3.4232   -6.6372 C   0  0  0  0  0  0  0  0  0  0  0  0
   51.5867   -3.4266   -7.6513 N   0  0  0  0  0  0  0  0  0  0  0  0
   52.3412   -6.0806   -4.5968 N   0  0  0  0  0  0  0  0  0  0  0  0
   53.6255   -6.5446   -4.1796 C   0  0  0  0  0  0  0  0  0  0  0  0
   53.4371   -7.0693   -2.7541 C   0  0  0  0  0  0  0  0  0  0  0  0
   52.0364   -6.6807   -2.4176 C   0  0  0  0  0  0  0  0  0  0  0  0
   51.3449   -6.7382   -3.7853 C   0  0  0  0  0  0  0  0  0  0  0  0
   53.5712   -4.1798   -8.7977 N   0  0  0  0  0  0  0  0  0  0  0  0
   53.1544   -3.8814   -9.7312 H   0  0  0  0  0  0  0  0  0  0  0  0
   57.7169   -5.1019   -8.5061 C   0  0  0  0  0  0  0  0  0  0  0  0
   57.1782   -4.7063   -9.7039 C   0  0  0  0  0  0  0  0  0  0  0  0
   55.8143   -4.4009   -9.8474 C   0  0  0  0  0  0  0  0  0  0  0  0
   54.9470   -4.4828   -8.7895 C   0  0  0  0  0  0  0  0  0  0  0  0
   55.5177   -4.8898   -7.5720 C   0  0  0  0  0  0  0  0  0  0  0  0
   56.8533   -5.1872   -7.4400 C   0  0  0  0  0  0  0  0  0  0  0  0
   59.7908   -5.9299   -9.4721 C   0  0  0  0  0  0  0  0  0  0  0  0
   59.0648   -5.3999   -8.3797 O   0  0  0  0  0  0  0  0  0  0  0  0
 24 25  1  0  0  0
 25 18  1  0  0  0
 18 19  2  0  0  0
 19 20  1  0  0  0
 20 21  2  0  0  0
 21 16  1  0  0  0
 16  1  1  0  0  0
  1  2  2  0  0  0
  2  3  1  0  0  0
  3 11  1  0  0  0
 11 12  1  0  0  0
 12 13  1  0  0  0
 13 14  1  0  0  0
 14 15  1  0  0  0
  3  4  2  0  0  0
  4  5  1  0  0  0
  5  6  2  0  0  0
  6  7  1  0  0  0
  7  8  2  0  0  0
  8  9  1  0  0  0
  9 10  2  0  0  0
 21 22  1  0  0  0
 22 23  2  0  0  0
 23 18  1  0  0  0
 10  1  1  0  0  0
 15 11  1  0  0  0
  9  4  1  0  0  0
 16 17  1  0  0  0
M  END
> <minimizedAffinity>
-9.95307

> <CNNscore>
0.3923770189

> <CNNaffinity>
6.4721193314

> <CNN_VS>
2.5395109653

> <CNNaffinity_variance>
0.4070967138

$$$$
[H]c1c([H])c(N([H])c2nc(N3C([H])([H])C([H])([H])C([H])([H])C3([H])[H])c3c([H])c([H])c([H])c([H])c3n2)c([H])c([H])c1OC([H])([H])[H]


 25 28  0  0  0  0  0  0  0  0999 V2000
   54.8111   -4.3352   -9.5165 C   0  0  0  0  0  0  0  0  0  0  0  0
   55.1033   -4.0942  -10.7972 N   0  0  0  0  0  0  0  0  0  0  0  0
   56.3239   -4.2849  -11.3385 C   0  0  0  0  0  0  0  0  0  0  0  0
   57.3254   -4.7545  -10.5196 C   0  0  0  0  0  0  0  0  0  0  0  0
   58.5952   -4.9646  -10.9885 C   0  0  0  0  0  0  0  0  0  0  0  0
   59.5582   -5.4308  -10.1099 C   0  0  0  0  0  0  0  0  0  0  0  0
   59.2926   -5.6899   -8.7916 C   0  0  0  0  0  0  0  0  0  0  0  0
   58.0304   -5.4846   -8.3069 C   0  0  0  0  0  0  0  0  0  0  0  0
   57.0454   -5.0151   -9.1744 C   0  0  0  0  0  0  0  0  0  0  0  0
   55.7992   -4.7896   -8.7488 N   0  0  0  0  0  0  0  0  0  0  0  0
   56.5296   -4.0298  -12.7277 N   0  0  0  0  0  0  0  0  0  0  0  0
   57.6304   -3.3476  -13.3290 C   0  0  0  0  0  0  0  0  0  0  0  0
   57.6714   -3.8219  -14.7837 C   0  0  0  0  0  0  0  0  0  0  0  0
   56.6484   -4.9070  -14.8298 C   0  0  0  0  0  0  0  0  0  0  0  0
   55.6316   -4.4407  -13.7806 C   0  0  0  0  0  0  0  0  0  0  0  0
   53.5084   -4.0893   -9.0342 N   0  0  0  0  0  0  0  0  0  0  0  0
   52.9381   -3.3993   -9.6112 H   0  0  0  0  0  0  0  0  0  0  0  0
   51.4598   -5.9206   -5.7828 C   0  0  0  0  0  0  0  0  0  0  0  0
   52.1833   -4.7721   -5.5864 C   0  0  0  0  0  0  0  0  0  0  0  0
   52.8817   -4.1393   -6.6286 C   0  0  0  0  0  0  0  0  0  0  0  0
   52.8743   -4.6413   -7.9038 C   0  0  0  0  0  0  0  0  0  0  0  0
   52.1282   -5.8179   -8.0843 C   0  0  0  0  0  0  0  0  0  0  0  0
   51.4479   -6.4311   -7.0592 C   0  0  0  0  0  0  0  0  0  0  0  0
   51.2530   -6.4452   -3.4161 C   0  0  0  0  0  0  0  0  0  0  0  0
   50.7757   -6.5338   -4.7447 O   0  0  0  0  0  0  0  0  0  0  0  0
 24 25  1  0  0  0
 25 18  1  0  0  0
 18 19  2  0  0  0
 19 20  1  0  0  0
 20 21  2  0  0  0
 21 16  1  0  0  0
 16  1  1  0  0  0
  1  2  2  0  0  0
  2  3  1  0  0  0
  3 11  1  0  0  0
 11 12  1  0  0  0
 12 13  1  0  0  0
 13 14  1  0  0  0
 14 15  1  0  0  0
  3  4  2  0  0  0
  4  5  1  0  0  0
  5  6  2  0  0  0
  6  7  1  0  0  0
  7  8  2  0  0  0
  8  9  1  0  0  0
  9 10  2  0  0  0
 21 22  1  0  0  0
 22 23  2  0  0  0
 23 18  1  0  0  0
 10  1  1  0  0  0
 15 11  1  0  0  0
  9  4  1  0  0  0
 16 17  1  0  0  0
M  END
> <minimizedAffinity>
-4.85198

> <CNNscore>
0.3906708658

> <CNNaffinity>
5.9165029526

> <CNN_VS>
2.3114054203

> <CNNaffinity_variance>
0.1691059768

$$$$
[H]c1c([H])c(N([H])c2nc(N3C([H])([H])C([H])([H])C([H])([H])C3([H])[H])c3c([H])c([H])c([H])c([H])c3n2)c([H])c([H])c1OC([H])([H])[H]


 25 28  0  0  0  0  0  0  0  0999 V2000
   61.5714   -7.0154   -9.2729 C   0  0  0  0  0  0  0  0  0  0  0  0
   62.4983   -7.8158   -8.7401 N   0  0  0  0  0  0  0  0  0  0  0  0
   63.7657   -7.9041   -9.1932 C   0  0  0  0  0  0  0  0  0  0  0  0
   64.1211   -7.1228  -10.2688 C   0  0  0  0  0  0  0  0  0  0  0  0
   65.3846   -7.1613  -10.7964 C   0  0  0  0  0  0  0  0  0  0  0  0
   65.6743   -6.3554  -11.8841 C   0  0  0  0  0  0  0  0  0  0  0  0
   64.7489   -5.5219  -12.4538 C   0  0  0  0  0  0  0  0  0  0  0  0
   63.4824   -5.4720  -11.9402 C   0  0  0  0  0  0  0  0  0  0  0  0
   63.1691   -6.2756  -10.8451 C   0  0  0  0  0  0  0  0  0  0  0  0
   61.9442   -6.2707  -10.3115 N   0  0  0  0  0  0  0  0  0  0  0  0
   64.6939   -8.7658   -8.5350 N   0  0  0  0  0  0  0  0  0  0  0  0
   65.1531   -8.6749   -7.1860 C   0  0  0  0  0  0  0  0  0  0  0  0
   65.6473  -10.0759   -6.8178 C   0  0  0  0  0  0  0  0  0  0  0  0
   65.2475  -10.9099   -7.9885 C   0  0  0  0  0  0  0  0  0  0  0  0
   65.3314   -9.9076   -9.1463 C   0  0  0  0  0  0  0  0  0  0  0  0
   60.2645   -7.0023   -8.7422 N   0  0  0  0  0  0  0  0  0  0  0  0
   60.0991   -7.6804   -7.9377 H   0  0  0  0  0  0  0  0  0  0  0  0
   57.0126   -4.6611  -10.1796 C   0  0  0  0  0  0  0  0  0  0  0  0
   57.3838   -4.5946   -8.8610 C   0  0  0  0  0  0  0  0  0  0  0  0
   58.4448   -5.3558   -8.3421 C   0  0  0  0  0  0  0  0  0  0  0  0
   59.1681   -6.2091   -9.1339 C   0  0  0  0  0  0  0  0  0  0  0  0
   58.7722   -6.2633  -10.4807 C   0  0  0  0  0  0  0  0  0  0  0  0
   57.7328   -5.5154  -10.9805 C   0  0  0  0  0  0  0  0  0  0  0  0
   54.9394   -4.5078  -11.4438 C   0  0  0  0  0  0  0  0  0  0  0  0
   55.9635   -3.9039  -10.6773 O   0  0  0  0  0  0  0  0  0  0  0  0
 24 25  1  0  0  0
 25 18  1  0  0  0
 18 19  2  0  0  0
 19 20  1  0  0  0
 20 21  2  0  0  0
 21 16  1  0  0  0
 16  1  1  0  0  0
  1  2  2  0  0  0
  2  3  1  0  0  0
  3 11  1  0  0  0
 11 12  1  0  0  0
 12 13  1  0  0  0
 13 14  1  0  0  0
 14 15  1  0  0  0
  3  4  2  0  0  0
  4  5  1  0  0  0
  5  6  2  0  0  0
  6  7  1  0  0  0
  7  8  2  0  0  0
  8  9  1  0  0  0
  9 10  2  0  0  0
 21 22  1  0  0  0
 22 23  2  0  0  0
 23 18  1  0  0  0
 10  1  1  0  0  0
 15 11  1  0  0  0
  9  4  1  0  0  0
 16 17  1  0  0  0
M  END
> <minimizedAffinity>
-0.92741

> <CNNscore>
0.3798162639

> <CNNaffinity>
4.6658487320

> <CNN_VS>
1.7721651793

> <CNNaffinity_variance>
0.5717995167

$$$$
[H]c1c([H])c(N([H])c2nc(N3C([H])([H])C([H])([H])C([H])([H])C3([H])[H])c3c([H])c([H])c([H])c([H])c3n2)c([H])c([H])c1OC([H])([H])[H]


 25 28  0  0  0  0  0  0  0  0999 V2000
   56.0267   -4.2765   -9.2447 C   0  0  0  0  0  0  0  0  0  0  0  0
   56.0437   -4.9885   -8.1149 N   0  0  0  0  0  0  0  0  0  0  0  0
   54.9996   -5.0756   -7.2654 C   0  0  0  0  0  0  0  0  0  0  0  0
   53.8508   -4.3881   -7.5842 C   0  0  0  0  0  0  0  0  0  0  0  0
   52.7498   -4.4154   -6.7698 C   0  0  0  0  0  0  0  0  0  0  0  0
   51.6288   -3.6950   -7.1451 C   0  0  0  0  0  0  0  0  0  0  0  0
   51.5765   -2.9562   -8.2972 C   0  0  0  0  0  0  0  0  0  0  0  0
   52.6674   -2.9172   -9.1211 C   0  0  0  0  0  0  0  0  0  0  0  0
   53.8069   -3.6351   -8.7620 C   0  0  0  0  0  0  0  0  0  0  0  0
   54.9019   -3.6229   -9.5275 N   0  0  0  0  0  0  0  0  0  0  0  0
   55.1033   -5.8901   -6.0979 N   0  0  0  0  0  0  0  0  0  0  0  0
   54.6840   -7.2468   -5.9487 C   0  0  0  0  0  0  0  0  0  0  0  0
   55.4943   -7.8081   -4.7778 C   0  0  0  0  0  0  0  0  0  0  0  0
   56.4650   -6.7186   -4.4664 C   0  0  0  0  0  0  0  0  0  0  0  0
   55.6740   -5.4600   -4.8437 C   0  0  0  0  0  0  0  0  0  0  0  0
   57.1742   -4.2301  -10.0639 N   0  0  0  0  0  0  0  0  0  0  0  0
   58.1007   -4.3107   -9.5450 H   0  0  0  0  0  0  0  0  0  0  0  0
   57.6426   -3.7565  -14.2685 C   0  0  0  0  0  0  0  0  0  0  0  0
   56.3978   -3.9577  -13.7289 C   0  0  0  0  0  0  0  0  0  0  0  0
   56.1982   -4.1275  -12.3485 C   0  0  0  0  0  0  0  0  0  0  0  0
   57.2454   -4.0997  -11.4648 C   0  0  0  0  0  0  0  0  0  0  0  0
   58.5117   -3.8931  -12.0369 C   0  0  0  0  0  0  0  0  0  0  0  0
   58.6986   -3.7280  -13.3887 C   0  0  0  0  0  0  0  0  0  0  0  0
   58.8839   -2.7942  -16.1267 C   0  0  0  0  0  0  0  0  0  0  0  0
   57.8241   -3.5904  -15.6327 O   0  0  0  0  0  0  0  0  0  0  0  0
 24 25  1  0  0  0
 25 18  1  0  0  0
 18 19  2  0  0  0
 19 20  1  0  0  0
 20 21  2  0  0  0
 21 16  1  0  0  0
 16  1  1  0  0  0
  1  2  2  0  0  0
  2  3  1  0  0  0
  3 11  1  0  0  0
 11 12  1  0  0  0
 12 13  1  0  0  0
 13 14  1  0  0  0
 14 15  1  0  0  0
  3  4  2  0  0  0
  4  5  1  0  0  0
  5  6  2  0  0  0
  6  7  1  0  0  0
  7  8  2  0  0  0
  8  9  1  0  0  0
  9 10  2  0  0  0
 21 22  1  0  0  0
 22 23  2  0  0  0
 23 18  1  0  0  0
 10  1  1  0  0  0
 15 11  1  0  0  0
  9  4  1  0  0  0
 16 17  1  0  0  0
M  END
> <minimizedAffinity>
-8.07810

> <CNNscore>
0.3797842562

> <CNNaffinity>
5.9888734818

> <CNN_VS>
2.2744798660

> <CNNaffinity_variance>
0.0916571468

$$$$
[H]OC12N(C([H])([H])c3c([H])c([H])c(OC([H])([H])[H])c([H])c3[H])C3([H])C4([H])C5([H])C([H])([H])C([H])(C14[H])C1([H])C2([H])C3([H])C51[H]


 23 29  0  0  0  0  0  0  0  0999 V2000
   62.3310  -11.8166   -6.1151 N   0  0  0  0  0  0  0  0  0  0  0  0
   63.4555  -12.5362   -6.6978 C   0  0  0  0  0  0  0  0  0  0  0  0
   62.7245  -13.3001   -7.7801 C   0  0  0  0  0  0  0  0  0  0  0  0
   63.6921  -13.3535   -8.9265 C   0  0  0  0  0  0  0  0  0  0  0  0
   62.7276  -13.1986  -10.1085 C   0  0  0  0  0  0  0  0  0  0  0  0
   62.0504  -11.9192   -9.5954 C   0  0  0  0  0  0  0  0  0  0  0  0
   63.2329  -11.0413   -9.3380 C   0  0  0  0  0  0  0  0  0  0  0  0
   64.3368  -12.0102   -8.8903 C   0  0  0  0  0  0  0  0  0  0  0  0
   64.2145  -11.5140   -7.4817 C   0  0  0  0  0  0  0  0  0  0  0  0
   63.1207  -10.5464   -7.9398 C   0  0  0  0  0  0  0  0  0  0  0  0
   61.8873  -11.1423   -7.3107 C   0  0  0  0  0  0  0  0  0  0  0  0
   60.8297  -10.3155   -7.1975 O   0  0  0  0  0  0  0  0  0  0  0  0
   61.6391  -12.3401   -8.2257 C   0  0  0  0  0  0  0  0  0  0  0  0
   60.9599   -9.4891   -7.7242 H   0  0  0  0  0  0  0  0  0  0  0  0
   62.7151  -10.9706   -5.0338 C   0  0  0  0  0  0  0  0  0  0  0  0
   59.5709  -10.9686   -2.0828 C   0  0  0  0  0  0  0  0  0  0  0  0
   60.2051  -12.1344   -2.4526 C   0  0  0  0  0  0  0  0  0  0  0  0
   61.2076  -12.1373   -3.3976 C   0  0  0  0  0  0  0  0  0  0  0  0
   61.6286  -10.9682   -4.0240 C   0  0  0  0  0  0  0  0  0  0  0  0
   60.9726   -9.7994   -3.6343 C   0  0  0  0  0  0  0  0  0  0  0  0
   59.9709   -9.7995   -2.6893 C   0  0  0  0  0  0  0  0  0  0  0  0
   58.1437   -9.8000   -0.4664 C   0  0  0  0  0  0  0  0  0  0  0  0
   58.5539  -10.9837   -1.1204 O   0  0  0  0  0  0  0  0  0  0  0  0
 22 23  1  0  0  0
 23 16  1  0  0  0
 16 17  2  0  0  0
 17 18  1  0  0  0
 18 19  2  0  0  0
 19 15  1  0  0  0
 15  1  1  0  0  0
  1  2  1  0  0  0
  2  3  1  0  0  0
  3  4  1  0  0  0
  4  5  1  0  0  0
  5  6  1  0  0  0
  6  7  1  0  0  0
  7  8  1  0  0  0
  8  9  1  0  0  0
  9 10  1  0  0  0
 10 11  1  0  0  0
 11 12  1  0  0  0
 11 13  1  0  0  0
 19 20  1  0  0  0
 20 21  2  0  0  0
 21 16  1  0  0  0
 11  1  1  0  0  0
  9  2  1  0  0  0
 13  3  1  0  0  0
  8  4  1  0  0  0
 13  6  1  0  0  0
 10  7  1  0  0  0
 12 14  1  0  0  0
M  END
> <minimizedAffinity>
-3.04633

> <CNNscore>
0.5783514380

> <CNNaffinity>
4.0559687614

> <CNN_VS>
2.3457753658

> <CNNaffinity_variance>
0.1075367779

$$$$
[H]OC12N(C([H])([H])c3c([H])c([H])c(OC([H])([H])[H])c([H])c3[H])C3([H])C4([H])C5([H])C([H])([H])C([H])(C14[H])C1([H])C2([H])C3([H])C51[H]


 23 29  0  0  0  0  0  0  0  0999 V2000
   63.1072   -8.8229   -8.1674 N   0  0  0  0  0  0  0  0  0  0  0  0
   63.4997   -8.1155   -9.3788 C   0  0  0  0  0  0  0  0  0  0  0  0
   64.7690   -8.8717   -9.7048 C   0  0  0  0  0  0  0  0  0  0  0  0
   64.8053   -8.9234  -11.2046 C   0  0  0  0  0  0  0  0  0  0  0  0
   65.3842  -10.3272  -11.4180 C   0  0  0  0  0  0  0  0  0  0  0  0
   64.3557  -11.0588  -10.5430 C   0  0  0  0  0  0  0  0  0  0  0  0
   63.0691  -10.5685  -11.1259 C   0  0  0  0  0  0  0  0  0  0  0  0
   63.3761   -9.1317  -11.5725 C   0  0  0  0  0  0  0  0  0  0  0  0
   62.5587   -8.5940  -10.4375 C   0  0  0  0  0  0  0  0  0  0  0  0
   62.2524  -10.0300  -10.0055 C   0  0  0  0  0  0  0  0  0  0  0  0
   63.0413  -10.1509   -8.7268 C   0  0  0  0  0  0  0  0  0  0  0  0
   62.6722  -11.1509   -7.9030 O   0  0  0  0  0  0  0  0  0  0  0  0
   64.4624  -10.2912   -9.2695 C   0  0  0  0  0  0  0  0  0  0  0  0
   62.0578  -11.7810   -8.3534 H   0  0  0  0  0  0  0  0  0  0  0  0
   61.8944   -8.3275   -7.6049 C   0  0  0  0  0  0  0  0  0  0  0  0
   62.5211   -7.5576   -3.4086 C   0  0  0  0  0  0  0  0  0  0  0  0
   63.3774   -7.0563   -4.3643 C   0  0  0  0  0  0  0  0  0  0  0  0
   63.1806   -7.3040   -5.7051 C   0  0  0  0  0  0  0  0  0  0  0  0
   62.1117   -8.0698   -6.1605 C   0  0  0  0  0  0  0  0  0  0  0  0
   61.2571   -8.5675   -5.1754 C   0  0  0  0  0  0  0  0  0  0  0  0
   61.4562   -8.3182   -3.8358 C   0  0  0  0  0  0  0  0  0  0  0  0
   63.8565   -7.8227   -1.3686 C   0  0  0  0  0  0  0  0  0  0  0  0
   62.7360   -7.2960   -2.0499 O   0  0  0  0  0  0  0  0  0  0  0  0
 22 23  1  0  0  0
 23 16  1  0  0  0
 16 17  2  0  0  0
 17 18  1  0  0  0
 18 19  2  0  0  0
 19 15  1  0  0  0
 15  1  1  0  0  0
  1  2  1  0  0  0
  2  3  1  0  0  0
  3  4  1  0  0  0
  4  5  1  0  0  0
  5  6  1  0  0  0
  6  7  1  0  0  0
  7  8  1  0  0  0
  8  9  1  0  0  0
  9 10  1  0  0  0
 10 11  1  0  0  0
 11 12  1  0  0  0
 11 13  1  0  0  0
 19 20  1  0  0  0
 20 21  2  0  0  0
 21 16  1  0  0  0
 11  1  1  0  0  0
  9  2  1  0  0  0
 13  3  1  0  0  0
  8  4  1  0  0  0
 13  6  1  0  0  0
 10  7  1  0  0  0
 12 14  1  0  0  0
M  END
> <minimizedAffinity>
-2.82704

> <CNNscore>
0.5217165947

> <CNNaffinity>
3.9718699455

> <CNN_VS>
2.0721905231

> <CNNaffinity_variance>
0.1402609050

$$$$
[H]OC12N(C([H])([H])c3c([H])c([H])c(OC([H])([H])[H])c([H])c3[H])C3([H])C4([H])C5([H])C([H])([H])C([H])(C14[H])C1([H])C2([H])C3([H])C51[H]


 23 29  0  0  0  0  0  0  0  0999 V2000
   63.0507   -9.6904   -8.6234 N   0  0  0  0  0  0  0  0  0  0  0  0
   64.2123  -10.5336   -8.8718 C   0  0  0  0  0  0  0  0  0  0  0  0
   63.5213  -11.8739   -8.9959 C   0  0  0  0  0  0  0  0  0  0  0  0
   64.3079  -12.6109  -10.0407 C   0  0  0  0  0  0  0  0  0  0  0  0
   63.1777  -13.3534  -10.7636 C   0  0  0  0  0  0  0  0  0  0  0  0
   62.3167  -12.1105  -11.0330 C   0  0  0  0  0  0  0  0  0  0  0  0
   63.3039  -11.2048  -11.6965 C   0  0  0  0  0  0  0  0  0  0  0  0
   64.6436  -11.5460  -11.0280 C   0  0  0  0  0  0  0  0  0  0  0  0
   64.6139  -10.2462  -10.2830 C   0  0  0  0  0  0  0  0  0  0  0  0
   63.2829   -9.9123  -10.9608 C   0  0  0  0  0  0  0  0  0  0  0  0
   62.3087  -10.0205   -9.8156 C   0  0  0  0  0  0  0  0  0  0  0  0
   61.1229   -9.4068   -9.9953 O   0  0  0  0  0  0  0  0  0  0  0  0
   62.2018  -11.5366   -9.6619 C   0  0  0  0  0  0  0  0  0  0  0  0
   60.9955   -9.1370  -10.9379 H   0  0  0  0  0  0  0  0  0  0  0  0
   63.3885   -8.3144   -8.4658 C   0  0  0  0  0  0  0  0  0  0  0  0
   63.3016   -7.3666   -4.2600 C   0  0  0  0  0  0  0  0  0  0  0  0
   62.1585   -7.7355   -4.9347 C   0  0  0  0  0  0  0  0  0  0  0  0
   62.1838   -8.0355   -6.2790 C   0  0  0  0  0  0  0  0  0  0  0  0
   63.3599   -7.9812   -7.0207 C   0  0  0  0  0  0  0  0  0  0  0  0
   64.5055   -7.6053   -6.3173 C   0  0  0  0  0  0  0  0  0  0  0  0
   64.4772   -7.3060   -4.9734 C   0  0  0  0  0  0  0  0  0  0  0  0
   64.3235   -7.4083   -2.0308 C   0  0  0  0  0  0  0  0  0  0  0  0
   63.2579   -7.0651   -2.8933 O   0  0  0  0  0  0  0  0  0  0  0  0
 22 23  1  0  0  0
 23 16  1  0  0  0
 16 17  2  0  0  0
 17 18  1  0  0  0
 18 19  2  0  0  0
 19 15  1  0  0  0
 15  1  1  0  0  0
  1  2  1  0  0  0
  2  3  1  0  0  0
  3  4  1  0  0  0
  4  5  1  0  0  0
  5  6  1  0  0  0
  6  7  1  0  0  0
  7  8  1  0  0  0
  8  9  1  0  0  0
  9 10  1  0  0  0
 10 11  1  0  0  0
 11 12  1  0  0  0
 11 13  1  0  0  0
 19 20  1  0  0  0
 20 21  2  0  0  0
 21 16  1  0  0  0
 11  1  1  0  0  0
  9  2  1  0  0  0
 13  3  1  0  0  0
  8  4  1  0  0  0
 13  6  1  0  0  0
 10  7  1  0  0  0
 12 14  1  0  0  0
M  END
> <minimizedAffinity>
-3.03242

> <CNNscore>
0.5191995502

> <CNNaffinity>
3.9853179455

> <CNN_VS>
2.0691752434

> <CNNaffinity_variance>
0.3789894879

$$$$
[H]OC12N(C([H])([H])c3c([H])c([H])c(OC([H])([H])[H])c([H])c3[H])C3([H])C4([H])C5([H])C([H])([H])C([H])(C14[H])C1([H])C2([H])C3([H])C51[H]


 23 29  0  0  0  0  0  0  0  0999 V2000
   63.1138   -7.5929   -7.7844 N   0  0  0  0  0  0  0  0  0  0  0  0
   63.3257   -8.7164   -8.6870 C   0  0  0  0  0  0  0  0  0  0  0  0
   62.4574   -8.2703   -9.8431 C   0  0  0  0  0  0  0  0  0  0  0  0
   63.1825   -8.7467  -11.0681 C   0  0  0  0  0  0  0  0  0  0  0  0
   62.9051   -7.5799  -12.0236 C   0  0  0  0  0  0  0  0  0  0  0  0
   63.4117   -6.4780  -11.0814 C   0  0  0  0  0  0  0  0  0  0  0  0
   64.7722   -6.9899  -10.7319 C   0  0  0  0  0  0  0  0  0  0  0  0
   64.6149   -8.5174  -10.7263 C   0  0  0  0  0  0  0  0  0  0  0  0
   64.7061   -8.5309   -9.2307 C   0  0  0  0  0  0  0  0  0  0  0  0
   64.8701   -7.0094   -9.2478 C   0  0  0  0  0  0  0  0  0  0  0  0
   63.5591   -6.5432   -8.6680 C   0  0  0  0  0  0  0  0  0  0  0  0
   63.5453   -5.2843   -8.1884 O   0  0  0  0  0  0  0  0  0  0  0  0
   62.6187   -6.7630   -9.8516 C   0  0  0  0  0  0  0  0  0  0  0  0
   64.3516   -4.7839   -8.4655 H   0  0  0  0  0  0  0  0  0  0  0  0
   63.8360   -7.7206   -6.5619 C   0  0  0  0  0  0  0  0  0  0  0  0
   61.0112   -8.0051   -3.3164 C   0  0  0  0  0  0  0  0  0  0  0  0
   60.6183   -8.1806   -4.6251 C   0  0  0  0  0  0  0  0  0  0  0  0
   61.5188   -8.0868   -5.6634 C   0  0  0  0  0  0  0  0  0  0  0  0
   62.8651   -7.8111   -5.4443 C   0  0  0  0  0  0  0  0  0  0  0  0
   63.2409   -7.6371   -4.1113 C   0  0  0  0  0  0  0  0  0  0  0  0
   62.3386   -7.7315   -3.0754 C   0  0  0  0  0  0  0  0  0  0  0  0
   60.4990   -8.2481   -0.9301 C   0  0  0  0  0  0  0  0  0  0  0  0
   60.0826   -8.1040   -2.2729 O   0  0  0  0  0  0  0  0  0  0  0  0
 22 23  1  0  0  0
 23 16  1  0  0  0
 16 17  2  0  0  0
 17 18  1  0  0  0
 18 19  2  0  0  0
 19 15  1  0  0  0
 15  1  1  0  0  0
  1  2  1  0  0  0
  2  3  1  0  0  0
  3  4  1  0  0  0
  4  5  1  0  0  0
  5  6  1  0  0  0
  6  7  1  0  0  0
  7  8  1  0  0  0
  8  9  1  0  0  0
  9 10  1  0  0  0
 10 11  1  0  0  0
 11 12  1  0  0  0
 11 13  1  0  0  0
 19 20  1  0  0  0
 20 21  2  0  0  0
 21 16  1  0  0  0
 11  1  1  0  0  0
  9  2  1  0  0  0
 13  3  1  0  0  0
  8  4  1  0  0  0
 13  6  1  0  0  0
 10  7  1  0  0  0
 12 14  1  0  0  0
M  END
> <minimizedAffinity>
-2.94857

> <CNNscore>
0.4733446538

> <CNNaffinity>
3.8867046833

> <CNN_VS>
1.8397508860

> <CNNaffinity_variance>
0.0456023328

$$$$
[H]OC12N(C([H])([H])c3c([H])c([H])c(OC([H])([H])[H])c([H])c3[H])C3([H])C4([H])C5([H])C([H])([H])C([H])(C14[H])C1([H])C2([H])C3([H])C51[H]


 23 29  0  0  0  0  0  0  0  0999 V2000
   62.0569   -9.7033   -7.9247 N   0  0  0  0  0  0  0  0  0  0  0  0
   61.4682   -8.8082   -8.9117 C   0  0  0  0  0  0  0  0  0  0  0  0
   62.3597   -7.6020   -8.7125 C   0  0  0  0  0  0  0  0  0  0  0  0
   62.5100   -7.0107  -10.0840 C   0  0  0  0  0  0  0  0  0  0  0  0
   63.9728   -6.5541  -10.0284 C   0  0  0  0  0  0  0  0  0  0  0  0
   64.5472   -7.9105   -9.5938 C   0  0  0  0  0  0  0  0  0  0  0  0
   63.9761   -8.8205  -10.6336 C   0  0  0  0  0  0  0  0  0  0  0  0
   62.6060   -8.2105  -10.9631 C   0  0  0  0  0  0  0  0  0  0  0  0
   61.9226   -9.3292  -10.2374 C   0  0  0  0  0  0  0  0  0  0  0  0
   63.2928   -9.9331   -9.9211 C   0  0  0  0  0  0  0  0  0  0  0  0
   63.4057   -9.7013   -8.4360 C   0  0  0  0  0  0  0  0  0  0  0  0
   64.3121  -10.4618   -7.7916 O   0  0  0  0  0  0  0  0  0  0  0  0
   63.7134   -8.2056   -8.3937 C   0  0  0  0  0  0  0  0  0  0  0  0
   64.9090  -10.9278   -8.4271 H   0  0  0  0  0  0  0  0  0  0  0  0
   61.4148  -10.9753   -7.8777 C   0  0  0  0  0  0  0  0  0  0  0  0
   60.2306  -11.7691   -3.8080 C   0  0  0  0  0  0  0  0  0  0  0  0
   60.6939  -10.5292   -4.1901 C   0  0  0  0  0  0  0  0  0  0  0  0
   61.0757  -10.2749   -5.4891 C   0  0  0  0  0  0  0  0  0  0  0  0
   61.0133  -11.2528   -6.4770 C   0  0  0  0  0  0  0  0  0  0  0  0
   60.5411  -12.5011   -6.0679 C   0  0  0  0  0  0  0  0  0  0  0  0
   60.1600  -12.7525   -4.7687 C   0  0  0  0  0  0  0  0  0  0  0  0
   60.5504  -12.9268   -1.6696 C   0  0  0  0  0  0  0  0  0  0  0  0
   59.8465  -12.0105   -2.4833 O   0  0  0  0  0  0  0  0  0  0  0  0
 22 23  1  0  0  0
 23 16  1  0  0  0
 16 17  2  0  0  0
 17 18  1  0  0  0
 18 19  2  0  0  0
 19 15  1  0  0  0
 15  1  1  0  0  0
  1  2  1  0  0  0
  2  3  1  0  0  0
  3  4  1  0  0  0
  4  5  1  0  0  0
  5  6  1  0  0  0
  6  7  1  0  0  0
  7  8  1  0  0  0
  8  9  1  0  0  0
  9 10  1  0  0  0
 10 11  1  0  0  0
 11 12  1  0  0  0
 11 13  1  0  0  0
 19 20  1  0  0  0
 20 21  2  0  0  0
 21 16  1  0  0  0
 11  1  1  0  0  0
  9  2  1  0  0  0
 13  3  1  0  0  0
  8  4  1  0  0  0
 13  6  1  0  0  0
 10  7  1  0  0  0
 12 14  1  0  0  0
M  END
> <minimizedAffinity>
-3.50307

> <CNNscore>
0.4541324973

> <CNNaffinity>
3.8044934273

> <CNN_VS>
1.7277441025

> <CNNaffinity_variance>
0.1049704775

$$$$
[H]OC12N(C([H])([H])c3c([H])c([H])c(OC([H])([H])[H])c([H])c3[H])C3([H])C4([H])C5([H])C([H])([H])C([H])(C14[H])C1([H])C2([H])C3([H])C51[H]


 23 29  0  0  0  0  0  0  0  0999 V2000
   63.2045   -7.7522   -6.8061 N   0  0  0  0  0  0  0  0  0  0  0  0
   63.9868   -7.7557   -8.0349 C   0  0  0  0  0  0  0  0  0  0  0  0
   63.2755   -8.8665   -8.7761 C   0  0  0  0  0  0  0  0  0  0  0  0
   63.3093   -8.4441  -10.2161 C   0  0  0  0  0  0  0  0  0  0  0  0
   61.9316   -8.9328  -10.6791 C   0  0  0  0  0  0  0  0  0  0  0  0
   61.1315   -8.2211   -9.5781 C   0  0  0  0  0  0  0  0  0  0  0  0
   61.6283   -6.8173   -9.7118 C   0  0  0  0  0  0  0  0  0  0  0  0
   63.0938   -6.9711  -10.1437 C   0  0  0  0  0  0  0  0  0  0  0  0
   63.5503   -6.5376   -8.7839 C   0  0  0  0  0  0  0  0  0  0  0  0
   62.0864   -6.3799   -8.3659 C   0  0  0  0  0  0  0  0  0  0  0  0
   61.9092   -7.5212   -7.3974 C   0  0  0  0  0  0  0  0  0  0  0  0
   60.8571   -7.4224   -6.5617 O   0  0  0  0  0  0  0  0  0  0  0  0
   61.8280   -8.7096   -8.3539 C   0  0  0  0  0  0  0  0  0  0  0  0
   60.2414   -6.7010   -6.8407 H   0  0  0  0  0  0  0  0  0  0  0  0
   63.6432   -6.7677   -5.8729 C   0  0  0  0  0  0  0  0  0  0  0  0
   64.4706   -8.7163   -2.1162 C   0  0  0  0  0  0  0  0  0  0  0  0
   63.7742   -9.3573   -3.1172 C   0  0  0  0  0  0  0  0  0  0  0  0
   63.5061   -8.7351   -4.3168 C   0  0  0  0  0  0  0  0  0  0  0  0
   63.9231   -7.4333   -4.5773 C   0  0  0  0  0  0  0  0  0  0  0  0
   64.6268   -6.8031   -3.5495 C   0  0  0  0  0  0  0  0  0  0  0  0
   64.8933   -7.4276   -2.3514 C   0  0  0  0  0  0  0  0  0  0  0  0
   63.8391  -10.3180   -0.3694 C   0  0  0  0  0  0  0  0  0  0  0  0
   64.7345   -9.3636   -0.9029 O   0  0  0  0  0  0  0  0  0  0  0  0
 22 23  1  0  0  0
 23 16  1  0  0  0
 16 17  2  0  0  0
 17 18  1  0  0  0
 18 19  2  0  0  0
 19 15  1  0  0  0
 15  1  1  0  0  0
  1  2  1  0  0  0
  2  3  1  0  0  0
  3  4  1  0  0  0
  4  5  1  0  0  0
  5  6  1  0  0  0
  6  7  1  0  0  0
  7  8  1  0  0  0
  8  9  1  0  0  0
  9 10  1  0  0  0
 10 11  1  0  0  0
 11 12  1  0  0  0
 11 13  1  0  0  0
 19 20  1  0  0  0
 20 21  2  0  0  0
 21 16  1  0  0  0
 11  1  1  0  0  0
  9  2  1  0  0  0
 13  3  1  0  0  0
  8  4  1  0  0  0
 13  6  1  0  0  0
 10  7  1  0  0  0
 12 14  1  0  0  0
M  END
> <minimizedAffinity>
-3.43225

> <CNNscore>
0.4489802420

> <CNNaffinity>
3.9170718193

> <CNN_VS>
1.7586878538

> <CNNaffinity_variance>
0.0933779702

$$$$
[H]OC12N(C([H])([H])c3c([H])c([H])c(OC([H])([H])[H])c([H])c3[H])C3([H])C4([H])C5([H])C([H])([H])C([H])(C14[H])C1([H])C2([H])C3([H])C51[H]


 23 29  0  0  0  0  0  0  0  0999 V2000
   61.8758   -9.7819   -5.4285 N   0  0  0  0  0  0  0  0  0  0  0  0
   62.6728  -10.9951   -5.3068 C   0  0  0  0  0  0  0  0  0  0  0  0
   61.7541  -11.9652   -6.0169 C   0  0  0  0  0  0  0  0  0  0  0  0
   62.6777  -12.9092   -6.7305 C   0  0  0  0  0  0  0  0  0  0  0  0
   61.8901  -13.1385   -8.0260 C   0  0  0  0  0  0  0  0  0  0  0  0
   61.7196  -11.6524   -8.3744 C   0  0  0  0  0  0  0  0  0  0  0  0
   63.1329  -11.1691   -8.3090 C   0  0  0  0  0  0  0  0  0  0  0  0
   63.7756  -12.0188   -7.2031 C   0  0  0  0  0  0  0  0  0  0  0  0
   63.7901  -10.8331   -6.2870 C   0  0  0  0  0  0  0  0  0  0  0  0
   63.1567   -9.9931   -7.3986 C   0  0  0  0  0  0  0  0  0  0  0  0
   61.7654   -9.7617   -6.8667 C   0  0  0  0  0  0  0  0  0  0  0  0
   61.0896   -8.7361   -7.4204 O   0  0  0  0  0  0  0  0  0  0  0  0
   61.1252  -11.1268   -7.1123 C   0  0  0  0  0  0  0  0  0  0  0  0
   61.5405   -8.4052   -8.2355 H   0  0  0  0  0  0  0  0  0  0  0  0
   62.5036   -8.6452   -4.8400 C   0  0  0  0  0  0  0  0  0  0  0  0
   60.0973   -7.2705   -1.5363 C   0  0  0  0  0  0  0  0  0  0  0  0
   61.3722   -7.7546   -1.3409 C   0  0  0  0  0  0  0  0  0  0  0  0
   62.1411   -8.1973   -2.3949 C   0  0  0  0  0  0  0  0  0  0  0  0
   61.6713   -8.1782   -3.7046 C   0  0  0  0  0  0  0  0  0  0  0  0
   60.3777   -7.6839   -3.8793 C   0  0  0  0  0  0  0  0  0  0  0  0
   59.6113   -7.2420   -2.8239 C   0  0  0  0  0  0  0  0  0  0  0  0
   59.3564   -5.4730   -0.0411 C   0  0  0  0  0  0  0  0  0  0  0  0
   59.3294   -6.8244   -0.4537 O   0  0  0  0  0  0  0  0  0  0  0  0
 22 23  1  0  0  0
 23 16  1  0  0  0
 16 17  2  0  0  0
 17 18  1  0  0  0
 18 19  2  0  0  0
 19 15  1  0  0  0
 15  1  1  0  0  0
  1  2  1  0  0  0
  2  3  1  0  0  0
  3  4  1  0  0  0
  4  5  1  0  0  0
  5  6  1  0  0  0
  6  7  1  0  0  0
  7  8  1  0  0  0
  8  9  1  0  0  0
  9 10  1  0  0  0
 10 11  1  0  0  0
 11 12  1  0  0  0
 11 13  1  0  0  0
 19 20  1  0  0  0
 20 21  2  0  0  0
 21 16  1  0  0  0
 11  1  1  0  0  0
  9  2  1  0  0  0
 13  3  1  0  0  0
  8  4  1  0  0  0
 13  6  1  0  0  0
 10  7  1  0  0  0
 12 14  1  0  0  0
M  END
> <minimizedAffinity>
-3.13399

> <CNNscore>
0.4363035560

> <CNNaffinity>
4.0705718994

> <CNN_VS>
1.7760050297

> <CNNaffinity_variance>
0.1677307039

$$$$
[H]OC12N(C([H])([H])c3c([H])c([H])c(OC([H])([H])[H])c([H])c3[H])C3([H])C4([H])C5([H])C([H])([H])C([H])(C14[H])C1([H])C2([H])C3([H])C51[H]


 23 29  0  0  0  0  0  0  0  0999 V2000
   61.8837  -10.6465   -6.8498 N   0  0  0  0  0  0  0  0  0  0  0  0
   61.2392  -10.5724   -8.1541 C   0  0  0  0  0  0  0  0  0  0  0  0
   61.7202   -9.2053   -8.5888 C   0  0  0  0  0  0  0  0  0  0  0  0
   61.9217   -9.3277  -10.0713 C   0  0  0  0  0  0  0  0  0  0  0  0
   63.1734   -8.4605  -10.2517 C   0  0  0  0  0  0  0  0  0  0  0  0
   64.0206   -9.1805   -9.1921 C   0  0  0  0  0  0  0  0  0  0  0  0
   63.8979  -10.6040   -9.6325 C   0  0  0  0  0  0  0  0  0  0  0  0
   62.4848  -10.6989  -10.2260 C   0  0  0  0  0  0  0  0  0  0  0  0
   62.0275  -11.4867   -9.0362 C   0  0  0  0  0  0  0  0  0  0  0  0
   63.4411  -11.3930   -8.4572 C   0  0  0  0  0  0  0  0  0  0  0  0
   63.2442  -10.4585   -7.2910 C   0  0  0  0  0  0  0  0  0  0  0  0
   64.2082  -10.4844   -6.3502 O   0  0  0  0  0  0  0  0  0  0  0  0
   63.1175   -9.1154   -8.0078 C   0  0  0  0  0  0  0  0  0  0  0  0
   65.0049  -10.9788   -6.6636 H   0  0  0  0  0  0  0  0  0  0  0  0
   61.6175  -11.8704   -6.1690 C   0  0  0  0  0  0  0  0  0  0  0  0
   59.9840  -10.9692   -2.2814 C   0  0  0  0  0  0  0  0  0  0  0  0
   60.1297  -12.2694   -2.7130 C   0  0  0  0  0  0  0  0  0  0  0  0
   60.6484  -12.5590   -3.9560 C   0  0  0  0  0  0  0  0  0  0  0  0
   61.0495  -11.5576   -4.8350 C   0  0  0  0  0  0  0  0  0  0  0  0
   60.8930  -10.2483   -4.3773 C   0  0  0  0  0  0  0  0  0  0  0  0
   60.3743   -9.9617   -3.1342 C   0  0  0  0  0  0  0  0  0  0  0  0
   58.2553   -9.9613   -0.8632 C   0  0  0  0  0  0  0  0  0  0  0  0
   59.4551  -10.6927   -1.0147 O   0  0  0  0  0  0  0  0  0  0  0  0
 22 23  1  0  0  0
 23 16  1  0  0  0
 16 17  2  0  0  0
 17 18  1  0  0  0
 18 19  2  0  0  0
 19 15  1  0  0  0
 15  1  1  0  0  0
  1  2  1  0  0  0
  2  3  1  0  0  0
  3  4  1  0  0  0
  4  5  1  0  0  0
  5  6  1  0  0  0
  6  7  1  0  0  0
  7  8  1  0  0  0
  8  9  1  0  0  0
  9 10  1  0  0  0
 10 11  1  0  0  0
 11 12  1  0  0  0
 11 13  1  0  0  0
 19 20  1  0  0  0
 20 21  2  0  0  0
 21 16  1  0  0  0
 11  1  1  0  0  0
  9  2  1  0  0  0
 13  3  1  0  0  0
  8  4  1  0  0  0
 13  6  1  0  0  0
 10  7  1  0  0  0
 12 14  1  0  0  0
M  END
> <minimizedAffinity>
-2.94682

> <CNNscore>
0.4076919556

> <CNNaffinity>
4.0134902000

> <CNN_VS>
1.6362676620

> <CNNaffinity_variance>
0.1113574058

$$$$
[H]OC12N(C([H])([H])c3c([H])c([H])c(OC([H])([H])[H])c([H])c3[H])C3([H])C4([H])C5([H])C([H])([H])C([H])(C14[H])C1([H])C2([H])C3([H])C51[H]


 23 29  0  0  0  0  0  0  0  0999 V2000
   62.4303   -8.8198   -8.1329 N   0  0  0  0  0  0  0  0  0  0  0  0
   63.7697   -8.3131   -8.3998 C   0  0  0  0  0  0  0  0  0  0  0  0
   64.0228   -8.9784   -9.7350 C   0  0  0  0  0  0  0  0  0  0  0  0
   64.8295   -7.9779  -10.5105 C   0  0  0  0  0  0  0  0  0  0  0  0
   64.2495   -8.1853  -11.9148 C   0  0  0  0  0  0  0  0  0  0  0  0
   62.7799   -7.9976  -11.5098 C   0  0  0  0  0  0  0  0  0  0  0  0
   62.8354   -6.6859  -10.7945 C   0  0  0  0  0  0  0  0  0  0  0  0
   64.2173   -6.6749  -10.1250 C   0  0  0  0  0  0  0  0  0  0  0  0
   63.5802   -6.8808   -8.7844 C   0  0  0  0  0  0  0  0  0  0  0  0
   62.2072   -6.8823   -9.4606 C   0  0  0  0  0  0  0  0  0  0  0  0
   61.7903   -8.3248   -9.3271 C   0  0  0  0  0  0  0  0  0  0  0  0
   60.4732   -8.5695   -9.4693 O   0  0  0  0  0  0  0  0  0  0  0  0
   62.6592   -8.9828  -10.3975 C   0  0  0  0  0  0  0  0  0  0  0  0
   59.9975   -7.7833   -9.8340 H   0  0  0  0  0  0  0  0  0  0  0  0
   61.8935   -8.3445   -6.9007 C   0  0  0  0  0  0  0  0  0  0  0  0
   60.4452  -11.7077   -4.6235 C   0  0  0  0  0  0  0  0  0  0  0  0
   60.6594  -10.4818   -4.0326 C   0  0  0  0  0  0  0  0  0  0  0  0
   61.1252   -9.4071   -4.7580 C   0  0  0  0  0  0  0  0  0  0  0  0
   61.4020   -9.5047   -6.1182 C   0  0  0  0  0  0  0  0  0  0  0  0
   61.1779  -10.7554   -6.6961 C   0  0  0  0  0  0  0  0  0  0  0  0
   60.7122  -11.8279   -5.9686 C   0  0  0  0  0  0  0  0  0  0  0  0
   60.7412  -13.3528   -2.8287 C   0  0  0  0  0  0  0  0  0  0  0  0
   59.9713  -12.7896   -3.8714 O   0  0  0  0  0  0  0  0  0  0  0  0
 22 23  1  0  0  0
 23 16  1  0  0  0
 16 17  2  0  0  0
 17 18  1  0  0  0
 18 19  2  0  0  0
 19 15  1  0  0  0
 15  1  1  0  0  0
  1  2  1  0  0  0
  2  3  1  0  0  0
  3  4  1  0  0  0
  4  5  1  0  0  0
  5  6  1  0  0  0
  6  7  1  0  0  0
  7  8  1  0  0  0
  8  9  1  0  0  0
  9 10  1  0  0  0
 10 11  1  0  0  0
 11 12  1  0  0  0
 11 13  1  0  0  0
 19 20  1  0  0  0
 20 21  2  0  0  0
 21 16  1  0  0  0
 11  1  1  0  0  0
  9  2  1  0  0  0
 13  3  1  0  0  0
  8  4  1  0  0  0
 13  6  1  0  0  0
 10  7  1  0  0  0
 12 14  1  0  0  0
M  END
> <minimizedAffinity>
-3.71697

> <CNNscore>
0.3988744318

> <CNNaffinity>
3.8586478233

> <CNN_VS>
1.5391159058

> <CNNaffinity_variance>
0.0831699297

$$$$
[H]c1nc(N2C([H])([H])C([H])([H])N(C([H])([H])C([H])([H])C([H])([H])Sc3c([H])c([H])c(F)c([H])c3[H])C([H])([H])C2([H])[H])c([H])c([H])c1[H]


 23 25  0  0  0  0  0  0  0  0999 V2000
   56.1061   -4.4912   -7.2680 N   0  0  0  0  0  0  0  0  0  0  0  0
   57.4296   -4.7550   -7.7765 C   0  0  0  0  0  0  0  0  0  0  0  0
   57.4894   -5.1452   -9.2277 C   0  0  0  0  0  0  0  0  0  0  0  0
   56.6668   -4.3350  -10.0709 N   0  0  0  0  0  0  0  0  0  0  0  0
   55.4666   -3.7585   -9.5227 C   0  0  0  0  0  0  0  0  0  0  0  0
   55.0968   -4.5360   -8.2951 C   0  0  0  0  0  0  0  0  0  0  0  0
   57.0469   -4.1202  -11.4217 C   0  0  0  0  0  0  0  0  0  0  0  0
   56.1379   -4.0824  -12.4539 C   0  0  0  0  0  0  0  0  0  0  0  0
   56.5375   -3.8800  -13.7770 C   0  0  0  0  0  0  0  0  0  0  0  0
   57.8620   -3.7133  -14.0716 C   0  0  0  0  0  0  0  0  0  0  0  0
   58.7520   -3.7545  -13.0244 C   0  0  0  0  0  0  0  0  0  0  0  0
   58.3529   -3.9496  -11.7607 N   0  0  0  0  0  0  0  0  0  0  0  0
   55.7833   -5.3471   -6.1470 C   0  0  0  0  0  0  0  0  0  0  0  0
   54.6738   -6.2861   -6.5412 C   0  0  0  0  0  0  0  0  0  0  0  0
   53.4748   -5.9896   -5.6416 C   0  0  0  0  0  0  0  0  0  0  0  0
   51.9647   -5.9571   -6.6402 S   0  0  0  0  0  0  0  0  0  0  0  0
   48.0681   -1.9424   -4.6034 F   0  0  0  0  0  0  0  0  0  0  0  0
   48.9614   -2.8467   -5.0874 C   0  0  0  0  0  0  0  0  0  0  0  0
   49.2900   -3.9610   -4.3270 C   0  0  0  0  0  0  0  0  0  0  0  0
   50.1874   -4.8897   -4.7894 C   0  0  0  0  0  0  0  0  0  0  0  0
   50.7981   -4.7598   -6.0186 C   0  0  0  0  0  0  0  0  0  0  0  0
   50.4633   -3.6485   -6.7646 C   0  0  0  0  0  0  0  0  0  0  0  0
   49.5609   -2.7005   -6.3169 C   0  0  0  0  0  0  0  0  0  0  0  0
 17 18  1  0  0  0
 18 19  2  0  0  0
 19 20  1  0  0  0
 20 21  2  0  0  0
 21 16  1  0  0  0
 16 15  1  0  0  0
 15 14  1  0  0  0
 14 13  1  0  0  0
 13  1  1  0  0  0
  1  2  1  0  0  0
  2  3  1  0  0  0
  3  4  1  0  0  0
  4  7  1  0  0  0
  7  8  2  0  0  0
  8  9  1  0  0  0
  9 10  2  0  0  0
 10 11  1  0  0  0
 11 12  2  0  0  0
  4  5  1  0  0  0
  5  6  1  0  0  0
 21 22  1  0  0  0
 22 23  2  0  0  0
 23 18  1  0  0  0
  6  1  1  0  0  0
 12  7  1  0  0  0
M  END
> <minimizedAffinity>
-8.14302

> <CNNscore>
0.3663455844

> <CNNaffinity>
5.8894004822

> <CNN_VS>
2.1575558186

> <CNNaffinity_variance>
0.2245647907

$$$$
[H]c1nc(N2C([H])([H])C([H])([H])N(C([H])([H])C([H])([H])C([H])([H])Sc3c([H])c([H])c(F)c([H])c3[H])C([H])([H])C2([H])[H])c([H])c([H])c1[H]


 23 25  0  0  0  0  0  0  0  0999 V2000
   56.9480   -4.3624   -9.2553 N   0  0  0  0  0  0  0  0  0  0  0  0
   55.9114   -3.8572  -10.1212 C   0  0  0  0  0  0  0  0  0  0  0  0
   54.5094   -4.2249   -9.7199 C   0  0  0  0  0  0  0  0  0  0  0  0
   54.2577   -4.0725   -8.3209 N   0  0  0  0  0  0  0  0  0  0  0  0
   55.3475   -4.2488   -7.3965 C   0  0  0  0  0  0  0  0  0  0  0  0
   56.4236   -5.0289   -8.0906 C   0  0  0  0  0  0  0  0  0  0  0  0
   52.9472   -3.7559   -7.8761 C   0  0  0  0  0  0  0  0  0  0  0  0
   52.2720   -4.5153   -6.9486 C   0  0  0  0  0  0  0  0  0  0  0  0
   50.9784   -4.1893   -6.5344 C   0  0  0  0  0  0  0  0  0  0  0  0
   50.3525   -3.0905   -7.0537 C   0  0  0  0  0  0  0  0  0  0  0  0
   51.0465   -2.3465   -7.9785 C   0  0  0  0  0  0  0  0  0  0  0  0
   52.2868   -2.6725   -8.3656 N   0  0  0  0  0  0  0  0  0  0  0  0
   57.8935   -5.1862   -9.9769 C   0  0  0  0  0  0  0  0  0  0  0  0
   58.9377   -5.6995   -9.0207 C   0  0  0  0  0  0  0  0  0  0  0  0
   60.1859   -6.0361   -9.8352 C   0  0  0  0  0  0  0  0  0  0  0  0
   61.0354   -7.4468   -9.0823 S   0  0  0  0  0  0  0  0  0  0  0  0
   65.3122   -5.6992   -5.3265 F   0  0  0  0  0  0  0  0  0  0  0  0
   64.3267   -6.1120   -6.1682 C   0  0  0  0  0  0  0  0  0  0  0  0
   64.2408   -5.5684   -7.4430 C   0  0  0  0  0  0  0  0  0  0  0  0
   63.2577   -5.9656   -8.3134 C   0  0  0  0  0  0  0  0  0  0  0  0
   62.3193   -6.9136   -7.9650 C   0  0  0  0  0  0  0  0  0  0  0  0
   62.4153   -7.4461   -6.6958 C   0  0  0  0  0  0  0  0  0  0  0  0
   63.3986   -7.0597   -5.8030 C   0  0  0  0  0  0  0  0  0  0  0  0
 17 18  1  0  0  0
 18 19  2  0  0  0
 19 20  1  0  0  0
 20 21  2  0  0  0
 21 16  1  0  0  0
 16 15  1  0  0  0
 15 14  1  0  0  0
 14 13  1  0  0  0
 13  1  1  0  0  0
  1  2  1  0  0  0
  2  3  1  0  0  0
  3  4  1  0  0  0
  4  7  1  0  0  0
  7  8  2  0  0  0
  8  9  1  0  0  0
  9 10  2  0  0  0
 10 11  1  0  0  0
 11 12  2  0  0  0
  4  5  1  0  0  0
  5  6  1  0  0  0
 21 22  1  0  0  0
 22 23  2  0  0  0
 23 18  1  0  0  0
  6  1  1  0  0  0
 12  7  1  0  0  0
M  END
> <minimizedAffinity>
-6.40268

> <CNNscore>
0.2347331494

> <CNNaffinity>
5.3472108841

> <CNN_VS>
1.2551676035

> <CNNaffinity_variance>
0.0414083824

$$$$
[H]c1nc(N2C([H])([H])C([H])([H])N(C([H])([H])C([H])([H])C([H])([H])Sc3c([H])c([H])c(F)c([H])c3[H])C([H])([H])C2([H])[H])c([H])c([H])c1[H]


 23 25  0  0  0  0  0  0  0  0999 V2000
   53.8775   -3.9017   -9.6857 N   0  0  0  0  0  0  0  0  0  0  0  0
   53.5469   -5.0051   -8.8179 C   0  0  0  0  0  0  0  0  0  0  0  0
   52.9814   -4.6169   -7.4795 C   0  0  0  0  0  0  0  0  0  0  0  0
   51.9918   -3.5879   -7.5547 N   0  0  0  0  0  0  0  0  0  0  0  0
   52.0785   -2.6179   -8.6154 C   0  0  0  0  0  0  0  0  0  0  0  0
   53.4831   -2.6279   -9.1400 C   0  0  0  0  0  0  0  0  0  0  0  0
   50.9539   -3.5431   -6.5872 C   0  0  0  0  0  0  0  0  0  0  0  0
   49.9290   -2.6266   -6.6367 C   0  0  0  0  0  0  0  0  0  0  0  0
   48.9245   -2.5954   -5.6665 C   0  0  0  0  0  0  0  0  0  0  0  0
   48.9449   -3.4918   -4.6345 C   0  0  0  0  0  0  0  0  0  0  0  0
   49.9781   -4.3984   -4.6057 C   0  0  0  0  0  0  0  0  0  0  0  0
   50.9342   -4.4152   -5.5438 N   0  0  0  0  0  0  0  0  0  0  0  0
   55.2720   -3.9231  -10.0706 C   0  0  0  0  0  0  0  0  0  0  0  0
   56.0578   -4.7044   -9.0508 C   0  0  0  0  0  0  0  0  0  0  0  0
   57.4450   -4.9656   -9.6360 C   0  0  0  0  0  0  0  0  0  0  0  0
   58.5624   -5.5109   -8.3197 S   0  0  0  0  0  0  0  0  0  0  0  0
   63.7992   -7.2587  -10.5495 F   0  0  0  0  0  0  0  0  0  0  0  0
   62.5954   -6.8552  -10.0613 C   0  0  0  0  0  0  0  0  0  0  0  0
   62.3535   -6.9167   -8.6955 C   0  0  0  0  0  0  0  0  0  0  0  0
   61.1491   -6.5164   -8.1747 C   0  0  0  0  0  0  0  0  0  0  0  0
   60.1340   -6.0397   -8.9765 C   0  0  0  0  0  0  0  0  0  0  0  0
   60.3866   -5.9835  -10.3317 C   0  0  0  0  0  0  0  0  0  0  0  0
   61.5938   -6.3819  -10.8771 C   0  0  0  0  0  0  0  0  0  0  0  0
 17 18  1  0  0  0
 18 19  2  0  0  0
 19 20  1  0  0  0
 20 21  2  0  0  0
 21 16  1  0  0  0
 16 15  1  0  0  0
 15 14  1  0  0  0
 14 13  1  0  0  0
 13  1  1  0  0  0
  1  2  1  0  0  0
  2  3  1  0  0  0
  3  4  1  0  0  0
  4  7  1  0  0  0
  7  8  2  0  0  0
  8  9  1  0  0  0
  9 10  2  0  0  0
 10 11  1  0  0  0
 11 12  2  0  0  0
  4  5  1  0  0  0
  5  6  1  0  0  0
 21 22  1  0  0  0
 22 23  2  0  0  0
 23 18  1  0  0  0
  6  1  1  0  0  0
 12  7  1  0  0  0
M  END
> <minimizedAffinity>
-6.41780

> <CNNscore>
0.2083924115

> <CNNaffinity>
5.5115695000

> <CNN_VS>
1.1485692263

> <CNNaffinity_variance>
0.0664090514

$$$$
[H]c1nc(N2C([H])([H])C([H])([H])N(C([H])([H])C([H])([H])C([H])([H])Sc3c([H])c([H])c(F)c([H])c3[H])C([H])([H])C2([H])[H])c([H])c([H])c1[H]


 23 25  0  0  0  0  0  0  0  0999 V2000
   53.4071   -3.9110   -9.2360 N   0  0  0  0  0  0  0  0  0  0  0  0
   53.2089   -4.9881   -8.2977 C   0  0  0  0  0  0  0  0  0  0  0  0
   52.6399   -4.5786   -6.9672 C   0  0  0  0  0  0  0  0  0  0  0  0
   51.5512   -3.6578   -7.0711 N   0  0  0  0  0  0  0  0  0  0  0  0
   51.5154   -2.7486   -8.1871 C   0  0  0  0  0  0  0  0  0  0  0  0
   52.9011   -2.6519   -8.7518 C   0  0  0  0  0  0  0  0  0  0  0  0
   50.5375   -3.6577   -6.0773 C   0  0  0  0  0  0  0  0  0  0  0  0
   49.5073   -2.7458   -6.0647 C   0  0  0  0  0  0  0  0  0  0  0  0
   48.5271   -2.7592   -5.0696 C   0  0  0  0  0  0  0  0  0  0  0  0
   48.5774   -3.6960   -4.0752 C   0  0  0  0  0  0  0  0  0  0  0  0
   49.6153   -4.5971   -4.1082 C   0  0  0  0  0  0  0  0  0  0  0  0
   50.5479   -4.5709   -5.0696 N   0  0  0  0  0  0  0  0  0  0  0  0
   54.7872   -3.8184   -9.6603 C   0  0  0  0  0  0  0  0  0  0  0  0
   55.6217   -4.7768   -8.8522 C   0  0  0  0  0  0  0  0  0  0  0  0
   57.0676   -4.2848   -8.8989 C   0  0  0  0  0  0  0  0  0  0  0  0
   57.9967   -5.2562  -10.1121 S   0  0  0  0  0  0  0  0  0  0  0  0
   57.4927   -2.9338  -15.5713 F   0  0  0  0  0  0  0  0  0  0  0  0
   57.5859   -3.4707  -14.3251 C   0  0  0  0  0  0  0  0  0  0  0  0
   58.8038   -3.4505  -13.6586 C   0  0  0  0  0  0  0  0  0  0  0  0
   58.9276   -3.9843  -12.4010 C   0  0  0  0  0  0  0  0  0  0  0  0
   57.8583   -4.5598  -11.7482 C   0  0  0  0  0  0  0  0  0  0  0  0
   56.6538   -4.5738  -12.4208 C   0  0  0  0  0  0  0  0  0  0  0  0
   56.5075   -4.0410  -13.6890 C   0  0  0  0  0  0  0  0  0  0  0  0
 17 18  1  0  0  0
 18 19  2  0  0  0
 19 20  1  0  0  0
 20 21  2  0  0  0
 21 16  1  0  0  0
 16 15  1  0  0  0
 15 14  1  0  0  0
 14 13  1  0  0  0
 13  1  1  0  0  0
  1  2  1  0  0  0
  2  3  1  0  0  0
  3  4  1  0  0  0
  4  7  1  0  0  0
  7  8  2  0  0  0
  8  9  1  0  0  0
  9 10  2  0  0  0
 10 11  1  0  0  0
 11 12  2  0  0  0
  4  5  1  0  0  0
  5  6  1  0  0  0
 21 22  1  0  0  0
 22 23  2  0  0  0
 23 18  1  0  0  0
  6  1  1  0  0  0
 12  7  1  0  0  0
M  END
> <minimizedAffinity>
-7.53596

> <CNNscore>
0.1838168502

> <CNNaffinity>
5.6401376724

> <CNN_VS>
1.0367523432

> <CNNaffinity_variance>
0.1690235138

$$$$
[H]c1nc(N2C([H])([H])C([H])([H])N(C([H])([H])C([H])([H])C([H])([H])Sc3c([H])c([H])c(F)c([H])c3[H])C([H])([H])C2([H])[H])c([H])c([H])c1[H]


 23 25  0  0  0  0  0  0  0  0999 V2000
   53.9435   -6.2814   -2.7606 N   0  0  0  0  0  0  0  0  0  0  0  0
   55.0781   -5.5227   -2.2949 C   0  0  0  0  0  0  0  0  0  0  0  0
   56.2198   -6.3442   -1.7624 C   0  0  0  0  0  0  0  0  0  0  0  0
   56.5400   -7.4732   -2.5789 N   0  0  0  0  0  0  0  0  0  0  0  0
   55.4909   -8.0969   -3.3430 C   0  0  0  0  0  0  0  0  0  0  0  0
   54.1775   -7.7028   -2.7364 C   0  0  0  0  0  0  0  0  0  0  0  0
   57.8754   -7.9535   -2.6163 C   0  0  0  0  0  0  0  0  0  0  0  0
   58.9531   -7.1377   -2.8729 C   0  0  0  0  0  0  0  0  0  0  0  0
   60.2574   -7.6358   -2.9150 C   0  0  0  0  0  0  0  0  0  0  0  0
   60.4870   -8.9658   -2.6977 C   0  0  0  0  0  0  0  0  0  0  0  0
   59.3952   -9.7618   -2.4430 C   0  0  0  0  0  0  0  0  0  0  0  0
   58.1502   -9.2688   -2.4061 N   0  0  0  0  0  0  0  0  0  0  0  0
   52.7314   -5.9152   -2.0607 C   0  0  0  0  0  0  0  0  0  0  0  0
   51.5447   -6.1756   -2.9508 C   0  0  0  0  0  0  0  0  0  0  0  0
   50.6059   -4.9757   -2.8337 C   0  0  0  0  0  0  0  0  0  0  0  0
   49.4838   -4.9466   -4.2544 S   0  0  0  0  0  0  0  0  0  0  0  0
   51.8717   -2.0334   -8.8655 F   0  0  0  0  0  0  0  0  0  0  0  0
   51.3092   -2.6836   -7.8115 C   0  0  0  0  0  0  0  0  0  0  0  0
   51.8915   -3.8507   -7.3353 C   0  0  0  0  0  0  0  0  0  0  0  0
   51.3465   -4.5276   -6.2739 C   0  0  0  0  0  0  0  0  0  0  0  0
   50.2066   -4.0839   -5.6380 C   0  0  0  0  0  0  0  0  0  0  0  0
   49.6375   -2.9233   -6.1204 C   0  0  0  0  0  0  0  0  0  0  0  0
   50.1710   -2.2256   -7.1891 C   0  0  0  0  0  0  0  0  0  0  0  0
 17 18  1  0  0  0
 18 19  2  0  0  0
 19 20  1  0  0  0
 20 21  2  0  0  0
 21 16  1  0  0  0
 16 15  1  0  0  0
 15 14  1  0  0  0
 14 13  1  0  0  0
 13  1  1  0  0  0
  1  2  1  0  0  0
  2  3  1  0  0  0
  3  4  1  0  0  0
  4  7  1  0  0  0
  7  8  2  0  0  0
  8  9  1  0  0  0
  9 10  2  0  0  0
 10 11  1  0  0  0
 11 12  2  0  0  0
  4  5  1  0  0  0
  5  6  1  0  0  0
 21 22  1  0  0  0
 22 23  2  0  0  0
 23 18  1  0  0  0
  6  1  1  0  0  0
 12  7  1  0  0  0
M  END
> <minimizedAffinity>
-7.01115

> <CNNscore>
0.1817324460

> <CNNaffinity>
5.3363580704

> <CNN_VS>
0.9697893858

> <CNNaffinity_variance>
0.1831241548

$$$$
[H]c1nc(N2C([H])([H])C([H])([H])N(C([H])([H])C([H])([H])C([H])([H])Sc3c([H])c([H])c(F)c([H])c3[H])C([H])([H])C2([H])[H])c([H])c([H])c1[H]


 23 25  0  0  0  0  0  0  0  0999 V2000
   55.6313   -4.4051   -8.9285 N   0  0  0  0  0  0  0  0  0  0  0  0
   56.2875   -4.7117  -10.1755 C   0  0  0  0  0  0  0  0  0  0  0  0
   57.7899   -4.6581  -10.1359 C   0  0  0  0  0  0  0  0  0  0  0  0
   58.3534   -5.2895   -8.9836 N   0  0  0  0  0  0  0  0  0  0  0  0
   57.5947   -5.3045   -7.7599 C   0  0  0  0  0  0  0  0  0  0  0  0
   56.5597   -4.2227   -7.8420 C   0  0  0  0  0  0  0  0  0  0  0  0
   59.6409   -5.8815   -9.0693 C   0  0  0  0  0  0  0  0  0  0  0  0
   60.3108   -6.0373  -10.2609 C   0  0  0  0  0  0  0  0  0  0  0  0
   61.5729   -6.6328  -10.3211 C   0  0  0  0  0  0  0  0  0  0  0  0
   62.1726   -7.0776   -9.1759 C   0  0  0  0  0  0  0  0  0  0  0  0
   61.4848   -6.9110   -7.9971 C   0  0  0  0  0  0  0  0  0  0  0  0
   60.2747   -6.3380   -7.9560 N   0  0  0  0  0  0  0  0  0  0  0  0
   54.7216   -3.2880   -9.0633 C   0  0  0  0  0  0  0  0  0  0  0  0
   53.5591   -3.4768   -8.1246 C   0  0  0  0  0  0  0  0  0  0  0  0
   53.1424   -4.9453   -8.1933 C   0  0  0  0  0  0  0  0  0  0  0  0
   53.2502   -5.6810   -6.5423 S   0  0  0  0  0  0  0  0  0  0  0  0
   48.5113   -4.3277   -3.2013 F   0  0  0  0  0  0  0  0  0  0  0  0
   49.6011   -4.6512   -3.9482 C   0  0  0  0  0  0  0  0  0  0  0  0
   49.7572   -4.0949   -5.2108 C   0  0  0  0  0  0  0  0  0  0  0  0
   50.8460   -4.4026   -5.9865 C   0  0  0  0  0  0  0  0  0  0  0  0
   51.8252   -5.2702   -5.5516 C   0  0  0  0  0  0  0  0  0  0  0  0
   51.6586   -5.8163   -4.2955 C   0  0  0  0  0  0  0  0  0  0  0  0
   50.5686   -5.5192   -3.4975 C   0  0  0  0  0  0  0  0  0  0  0  0
 17 18  1  0  0  0
 18 19  2  0  0  0
 19 20  1  0  0  0
 20 21  2  0  0  0
 21 16  1  0  0  0
 16 15  1  0  0  0
 15 14  1  0  0  0
 14 13  1  0  0  0
 13  1  1  0  0  0
  1  2  1  0  0  0
  2  3  1  0  0  0
  3  4  1  0  0  0
  4  7  1  0  0  0
  7  8  2  0  0  0
  8  9  1  0  0  0
  9 10  2  0  0  0
 10 11  1  0  0  0
 11 12  2  0  0  0
  4  5  1  0  0  0
  5  6  1  0  0  0
 21 22  1  0  0  0
 22 23  2  0  0  0
 23 18  1  0  0  0
  6  1  1  0  0  0
 12  7  1  0  0  0
M  END
> <minimizedAffinity>
-6.56300

> <CNNscore>
0.1594125777

> <CNNaffinity>
5.2144360542

> <CNN_VS>
0.8312466741

> <CNNaffinity_variance>
0.2999800146

$$$$
[H]c1nc(N2C([H])([H])C([H])([H])N(C([H])([H])C([H])([H])C([H])([H])Sc3c([H])c([H])c(F)c([H])c3[H])C([H])([H])C2([H])[H])c([H])c([H])c1[H]


 23 25  0  0  0  0  0  0  0  0999 V2000
   56.7295   -4.0984   -9.8813 N   0  0  0  0  0  0  0  0  0  0  0  0
   57.2899   -4.5106   -8.6181 C   0  0  0  0  0  0  0  0  0  0  0  0
   58.2417   -5.6726   -8.6911 C   0  0  0  0  0  0  0  0  0  0  0  0
   59.1786   -5.5763   -9.7668 N   0  0  0  0  0  0  0  0  0  0  0  0
   58.7896   -4.8796  -10.9654 C   0  0  0  0  0  0  0  0  0  0  0  0
   57.2920   -4.8132  -10.9987 C   0  0  0  0  0  0  0  0  0  0  0  0
   60.4620   -6.1678   -9.6320 C   0  0  0  0  0  0  0  0  0  0  0  0
   60.9797   -6.5546   -8.4174 C   0  0  0  0  0  0  0  0  0  0  0  0
   62.2502   -7.1250   -8.3089 C   0  0  0  0  0  0  0  0  0  0  0  0
   63.0121   -7.3112   -9.4286 C   0  0  0  0  0  0  0  0  0  0  0  0
   62.4743   -6.9176  -10.6312 C   0  0  0  0  0  0  0  0  0  0  0  0
   61.2541   -6.3718  -10.7186 N   0  0  0  0  0  0  0  0  0  0  0  0
   55.2838   -4.1543   -9.8689 C   0  0  0  0  0  0  0  0  0  0  0  0
   54.7838   -3.7973   -8.4938 C   0  0  0  0  0  0  0  0  0  0  0  0
   53.2580   -3.7409   -8.5562 C   0  0  0  0  0  0  0  0  0  0  0  0
   52.5615   -4.8599   -7.3148 S   0  0  0  0  0  0  0  0  0  0  0  0
   47.8751   -2.3906   -4.5962 F   0  0  0  0  0  0  0  0  0  0  0  0
   48.9447   -2.9385   -5.2333 C   0  0  0  0  0  0  0  0  0  0  0  0
   49.5749   -4.0481   -4.6860 C   0  0  0  0  0  0  0  0  0  0  0  0
   50.6555   -4.6219   -5.3063 C   0  0  0  0  0  0  0  0  0  0  0  0
   51.1601   -4.1271   -6.4901 C   0  0  0  0  0  0  0  0  0  0  0  0
   50.5254   -3.0244   -7.0237 C   0  0  0  0  0  0  0  0  0  0  0  0
   49.4345   -2.4310   -6.4145 C   0  0  0  0  0  0  0  0  0  0  0  0
 17 18  1  0  0  0
 18 19  2  0  0  0
 19 20  1  0  0  0
 20 21  2  0  0  0
 21 16  1  0  0  0
 16 15  1  0  0  0
 15 14  1  0  0  0
 14 13  1  0  0  0
 13  1  1  0  0  0
  1  2  1  0  0  0
  2  3  1  0  0  0
  3  4  1  0  0  0
  4  7  1  0  0  0
  7  8  2  0  0  0
  8  9  1  0  0  0
  9 10  2  0  0  0
 10 11  1  0  0  0
 11 12  2  0  0  0
  4  5  1  0  0  0
  5  6  1  0  0  0
 21 22  1  0  0  0
 22 23  2  0  0  0
 23 18  1  0  0  0
  6  1  1  0  0  0
 12  7  1  0  0  0
M  END
> <minimizedAffinity>
-7.53805

> <CNNscore>
0.1516992897

> <CNNaffinity>
5.1498498917

> <CNN_VS>
0.7812285423

> <CNNaffinity_variance>
0.1459624618

$$$$
[H]c1nc(N2C([H])([H])C([H])([H])N(C([H])([H])C([H])([H])C([H])([H])Sc3c([H])c([H])c(F)c([H])c3[H])C([H])([H])C2([H])[H])c([H])c([H])c1[H]


 23 25  0  0  0  0  0  0  0  0999 V2000
   55.0567   -4.7965   -6.1543 N   0  0  0  0  0  0  0  0  0  0  0  0
   56.3822   -4.3027   -6.4350 C   0  0  0  0  0  0  0  0  0  0  0  0
   56.9803   -4.7808   -7.7294 C   0  0  0  0  0  0  0  0  0  0  0  0
   56.0702   -4.7327   -8.8309 N   0  0  0  0  0  0  0  0  0  0  0  0
   54.6628   -4.8993   -8.5759 C   0  0  0  0  0  0  0  0  0  0  0  0
   54.5084   -5.5662   -7.2418 C   0  0  0  0  0  0  0  0  0  0  0  0
   56.5702   -4.5262  -10.1434 C   0  0  0  0  0  0  0  0  0  0  0  0
   57.8864   -4.7417  -10.4811 C   0  0  0  0  0  0  0  0  0  0  0  0
   58.3573   -4.5211  -11.7775 C   0  0  0  0  0  0  0  0  0  0  0  0
   57.5017   -4.0799  -12.7481 C   0  0  0  0  0  0  0  0  0  0  0  0
   56.1912   -3.8718  -12.3879 C   0  0  0  0  0  0  0  0  0  0  0  0
   55.7551   -4.0879  -11.1399 N   0  0  0  0  0  0  0  0  0  0  0  0
   55.0078   -5.5133   -4.8985 C   0  0  0  0  0  0  0  0  0  0  0  0
   53.8293   -6.4510   -4.9063 C   0  0  0  0  0  0  0  0  0  0  0  0
   52.7818   -5.8861   -3.9478 C   0  0  0  0  0  0  0  0  0  0  0  0
   51.1399   -6.0249   -4.6984 S   0  0  0  0  0  0  0  0  0  0  0  0
   49.7398   -1.1176   -7.7658 F   0  0  0  0  0  0  0  0  0  0  0  0
   50.0777   -2.2418   -7.0787 C   0  0  0  0  0  0  0  0  0  0  0  0
   49.3270   -2.6227   -5.9745 C   0  0  0  0  0  0  0  0  0  0  0  0
   49.6441   -3.7516   -5.2626 C   0  0  0  0  0  0  0  0  0  0  0  0
   50.7126   -4.5514   -5.6080 C   0  0  0  0  0  0  0  0  0  0  0  0
   51.4506   -4.1624   -6.7069 C   0  0  0  0  0  0  0  0  0  0  0  0
   51.1478   -3.0281   -7.4384 C   0  0  0  0  0  0  0  0  0  0  0  0
 17 18  1  0  0  0
 18 19  2  0  0  0
 19 20  1  0  0  0
 20 21  2  0  0  0
 21 16  1  0  0  0
 16 15  1  0  0  0
 15 14  1  0  0  0
 14 13  1  0  0  0
 13  1  1  0  0  0
  1  2  1  0  0  0
  2  3  1  0  0  0
  3  4  1  0  0  0
  4  7  1  0  0  0
  7  8  2  0  0  0
  8  9  1  0  0  0
  9 10  2  0  0  0
 10 11  1  0  0  0
 11 12  2  0  0  0
  4  5  1  0  0  0
  5  6  1  0  0  0
 21 22  1  0  0  0
 22 23  2  0  0  0
 23 18  1  0  0  0
  6  1  1  0  0  0
 12  7  1  0  0  0
M  END
> <minimizedAffinity>
-7.99712

> <CNNscore>
0.1515942663

> <CNNaffinity>
5.7601008415

> <CNN_VS>
0.8731982708

> <CNNaffinity_variance>
0.2238390148

$$$$
[H]c1nc(N2C([H])([H])C([H])([H])N(C([H])([H])C([H])([H])C([H])([H])Sc3c([H])c([H])c(F)c([H])c3[H])C([H])([H])C2([H])[H])c([H])c([H])c1[H]


 23 25  0  0  0  0  0  0  0  0999 V2000
   53.2364   -3.9053   -9.3823 N   0  0  0  0  0  0  0  0  0  0  0  0
   53.0273   -5.0122   -8.4819 C   0  0  0  0  0  0  0  0  0  0  0  0
   52.5320   -4.6360   -7.1126 C   0  0  0  0  0  0  0  0  0  0  0  0
   51.4833   -3.6645   -7.1321 N   0  0  0  0  0  0  0  0  0  0  0  0
   51.4441   -2.7071   -8.2069 C   0  0  0  0  0  0  0  0  0  0  0  0
   52.8087   -2.6473   -8.8254 C   0  0  0  0  0  0  0  0  0  0  0  0
   50.5118   -3.6627   -6.0969 C   0  0  0  0  0  0  0  0  0  0  0  0
   49.5190   -2.7142   -6.0092 C   0  0  0  0  0  0  0  0  0  0  0  0
   48.5805   -2.7272   -4.9748 C   0  0  0  0  0  0  0  0  0  0  0  0
   48.6350   -3.7007   -4.0165 C   0  0  0  0  0  0  0  0  0  0  0  0
   49.6351   -4.6380   -4.1246 C   0  0  0  0  0  0  0  0  0  0  0  0
   50.5280   -4.6117   -5.1229 N   0  0  0  0  0  0  0  0  0  0  0  0
   54.6010   -3.8554   -9.8607 C   0  0  0  0  0  0  0  0  0  0  0  0
   55.4590   -3.1487   -8.8445 C   0  0  0  0  0  0  0  0  0  0  0  0
   56.3467   -4.1987   -8.1777 C   0  0  0  0  0  0  0  0  0  0  0  0
   56.4167   -3.8859   -6.3956 S   0  0  0  0  0  0  0  0  0  0  0  0
   54.3835   -8.5617   -3.3209 F   0  0  0  0  0  0  0  0  0  0  0  0
   54.8484   -7.5064   -4.0422 C   0  0  0  0  0  0  0  0  0  0  0  0
   55.0211   -6.2753   -3.4236 C   0  0  0  0  0  0  0  0  0  0  0  0
   55.4883   -5.1935   -4.1258 C   0  0  0  0  0  0  0  0  0  0  0  0
   55.8045   -5.2789   -5.4651 C   0  0  0  0  0  0  0  0  0  0  0  0
   55.6286   -6.5072   -6.0682 C   0  0  0  0  0  0  0  0  0  0  0  0
   55.1589   -7.6104   -5.3784 C   0  0  0  0  0  0  0  0  0  0  0  0
 17 18  1  0  0  0
 18 19  2  0  0  0
 19 20  1  0  0  0
 20 21  2  0  0  0
 21 16  1  0  0  0
 16 15  1  0  0  0
 15 14  1  0  0  0
 14 13  1  0  0  0
 13  1  1  0  0  0
  1  2  1  0  0  0
  2  3  1  0  0  0
  3  4  1  0  0  0
  4  7  1  0  0  0
  7  8  2  0  0  0
  8  9  1  0  0  0
  9 10  2  0  0  0
 10 11  1  0  0  0
 11 12  2  0  0  0
  4  5  1  0  0  0
  5  6  1  0  0  0
 21 22  1  0  0  0
 22 23  2  0  0  0
 23 18  1  0  0  0
  6  1  1  0  0  0
 12  7  1  0  0  0
M  END
> <minimizedAffinity>
-7.48000

> <CNNscore>
0.1515441090

> <CNNaffinity>
6.0514302254

> <CNN_VS>
0.9170585871

> <CNNaffinity_variance>
0.2248949111

$$$$
[H]c1c([H])c([H])c2c(c1[H])[C@]([H])(c1c([H])c([H])c(F)c([H])c1[H])C([H])([H])C([H])([H])[C@]2([H])N([H])C([H])([H])[H]


 20 22  0  0  0  0  0  0  0  0999 V2000
   56.1276   -3.6289  -10.4338 C   0  0  0  0  0  0  0  0  0  0  0  0
   55.1518   -4.6859  -10.8300 C   0  0  0  0  0  0  0  0  0  0  0  0
   55.2096   -4.9457  -12.3170 C   0  0  0  0  0  0  0  0  0  0  0  0
   56.5916   -5.5661  -12.5708 C   0  0  0  0  0  0  0  0  0  0  0  0
   57.5451   -4.4351  -12.3514 C   0  0  0  0  0  0  0  0  0  0  0  0
   58.6431   -4.3055  -13.1566 C   0  0  0  0  0  0  0  0  0  0  0  0
   59.5095   -3.2527  -12.9365 C   0  0  0  0  0  0  0  0  0  0  0  0
   59.3073   -2.3379  -11.9431 C   0  0  0  0  0  0  0  0  0  0  0  0
   58.1820   -2.4994  -11.1436 C   0  0  0  0  0  0  0  0  0  0  0  0
   57.2973   -3.5375  -11.3351 C   0  0  0  0  0  0  0  0  0  0  0  0
   56.7073   -6.2000  -13.8779 C   0  0  0  0  0  0  0  0  0  0  0  0
   56.8821   -5.4299  -15.0047 C   0  0  0  0  0  0  0  0  0  0  0  0
   56.9964   -5.9896  -16.2593 C   0  0  0  0  0  0  0  0  0  0  0  0
   56.9361   -7.3538  -16.4073 C   0  0  0  0  0  0  0  0  0  0  0  0
   57.0495   -7.8973  -17.6535 F   0  0  0  0  0  0  0  0  0  0  0  0
   56.7631   -8.1443  -15.3052 C   0  0  0  0  0  0  0  0  0  0  0  0
   56.6482   -7.5667  -14.0360 C   0  0  0  0  0  0  0  0  0  0  0  0
   54.2998   -2.4321   -9.4140 C   0  0  0  0  0  0  0  0  0  0  0  0
   55.5101   -2.3404  -10.1820 N   0  0  0  0  0  0  0  0  0  0  0  0
   56.2005   -1.7811   -9.6331 H   0  0  0  0  0  0  0  0  0  0  0  0
 18 19  1  0  0  0
 19  1  1  0  0  0
  1  2  1  0  0  0
  2  3  1  0  0  0
  3  4  1  0  0  0
  4 11  1  0  0  0
 11 12  2  0  0  0
 12 13  1  0  0  0
 13 14  2  0  0  0
 14 15  1  0  0  0
 14 16  1  0  0  0
 16 17  2  0  0  0
  4  5  1  0  0  0
  5  6  2  0  0  0
  6  7  1  0  0  0
  7  8  2  0  0  0
  8  9  1  0  0  0
  9 10  2  0  0  0
 10  1  1  0  0  0
 17 11  1  0  0  0
 10  5  1  0  0  0
 19 20  1  0  0  0
M  END
> <minimizedAffinity>
21.45642

> <CNNscore>
0.4521688819

> <CNNaffinity>
4.2992324829

> <CNN_VS>
1.9439791441

> <CNNaffinity_variance>
0.7408691049

$$$$
[H]c1c([H])c([H])c2c(c1[H])[C@]([H])(c1c([H])c([H])c(F)c([H])c1[H])C([H])([H])C([H])([H])[C@]2([H])N([H])C([H])([H])[H]


 20 22  0  0  0  0  0  0  0  0999 V2000
   61.2565   -6.2653   -9.7792 C   0  0  0  0  0  0  0  0  0  0  0  0
   61.1406   -7.0786   -8.5336 C   0  0  0  0  0  0  0  0  0  0  0  0
   61.5764   -8.5046   -8.7758 C   0  0  0  0  0  0  0  0  0  0  0  0
   63.0837   -8.4291   -9.0618 C   0  0  0  0  0  0  0  0  0  0  0  0
   63.1680   -7.7787  -10.4057 C   0  0  0  0  0  0  0  0  0  0  0  0
   64.1070   -8.1992  -11.3069 C   0  0  0  0  0  0  0  0  0  0  0  0
   64.1659   -7.5850  -12.5425 C   0  0  0  0  0  0  0  0  0  0  0  0
   63.3192   -6.5731  -12.8946 C   0  0  0  0  0  0  0  0  0  0  0  0
   62.3773   -6.1707  -11.9552 C   0  0  0  0  0  0  0  0  0  0  0  0
   62.2907   -6.7611  -10.7138 C   0  0  0  0  0  0  0  0  0  0  0  0
   63.7509   -9.7222   -8.9809 C   0  0  0  0  0  0  0  0  0  0  0  0
   65.0083   -9.8160   -8.4299 C   0  0  0  0  0  0  0  0  0  0  0  0
   65.6738  -11.0194   -8.3340 C   0  0  0  0  0  0  0  0  0  0  0  0
   65.0795  -12.1680   -8.7967 C   0  0  0  0  0  0  0  0  0  0  0  0
   65.7473  -13.3535   -8.6977 F   0  0  0  0  0  0  0  0  0  0  0  0
   63.8304  -12.1052   -9.3491 C   0  0  0  0  0  0  0  0  0  0  0  0
   63.1630  -10.8789   -9.4420 C   0  0  0  0  0  0  0  0  0  0  0  0
   58.9377   -5.6617   -9.5109 C   0  0  0  0  0  0  0  0  0  0  0  0
   59.9822   -6.0221  -10.4287 N   0  0  0  0  0  0  0  0  0  0  0  0
   60.1291   -5.2213  -11.0829 H   0  0  0  0  0  0  0  0  0  0  0  0
 18 19  1  0  0  0
 19  1  1  0  0  0
  1  2  1  0  0  0
  2  3  1  0  0  0
  3  4  1  0  0  0
  4 11  1  0  0  0
 11 12  2  0  0  0
 12 13  1  0  0  0
 13 14  2  0  0  0
 14 15  1  0  0  0
 14 16  1  0  0  0
 16 17  2  0  0  0
  4  5  1  0  0  0
  5  6  2  0  0  0
  6  7  1  0  0  0
  7  8  2  0  0  0
  8  9  1  0  0  0
  9 10  2  0  0  0
 10  1  1  0  0  0
 17 11  1  0  0  0
 10  5  1  0  0  0
 19 20  1  0  0  0
M  END
> <minimizedAffinity>
-2.42338

> <CNNscore>
0.3749170005

> <CNNaffinity>
3.7716636658

> <CNN_VS>
1.4140608311

> <CNNaffinity_variance>
0.0878776759

$$$$
[H]c1c([H])c([H])c2c(c1[H])[C@]([H])(c1c([H])c([H])c(F)c([H])c1[H])C([H])([H])C([H])([H])[C@]2([H])N([H])C([H])([H])[H]


 20 22  0  0  0  0  0  0  0  0999 V2000
   58.8830   -5.1395   -8.8011 C   0  0  0  0  0  0  0  0  0  0  0  0
   59.7470   -5.1986  -10.0162 C   0  0  0  0  0  0  0  0  0  0  0  0
   58.9316   -5.5279  -11.2446 C   0  0  0  0  0  0  0  0  0  0  0  0
   58.0171   -4.3139  -11.4664 C   0  0  0  0  0  0  0  0  0  0  0  0
   57.0383   -4.3834  -10.3380 C   0  0  0  0  0  0  0  0  0  0  0  0
   55.7274   -4.0584  -10.5540 C   0  0  0  0  0  0  0  0  0  0  0  0
   54.8407   -4.1308   -9.4976 C   0  0  0  0  0  0  0  0  0  0  0  0
   55.2282   -4.5156   -8.2460 C   0  0  0  0  0  0  0  0  0  0  0  0
   56.5672   -4.8388   -8.0615 C   0  0  0  0  0  0  0  0  0  0  0  0
   57.4784   -4.7776   -9.0926 C   0  0  0  0  0  0  0  0  0  0  0  0
   57.4042   -4.2884  -12.7884 C   0  0  0  0  0  0  0  0  0  0  0  0
   56.4024   -5.1783  -13.1012 C   0  0  0  0  0  0  0  0  0  0  0  0
   55.7962   -5.1872  -14.3392 C   0  0  0  0  0  0  0  0  0  0  0  0
   56.1912   -4.2890  -15.3003 C   0  0  0  0  0  0  0  0  0  0  0  0
   55.5853   -4.3071  -16.5225 F   0  0  0  0  0  0  0  0  0  0  0  0
   57.1844   -3.3927  -15.0177 C   0  0  0  0  0  0  0  0  0  0  0  0
   57.7935   -3.3916  -13.7580 C   0  0  0  0  0  0  0  0  0  0  0  0
   60.2915   -6.9325   -8.0175 C   0  0  0  0  0  0  0  0  0  0  0  0
   58.9971   -6.3131   -7.9558 N   0  0  0  0  0  0  0  0  0  0  0  0
   58.8385   -5.9907   -6.9751 H   0  0  0  0  0  0  0  0  0  0  0  0
 18 19  1  0  0  0
 19  1  1  0  0  0
  1  2  1  0  0  0
  2  3  1  0  0  0
  3  4  1  0  0  0
  4 11  1  0  0  0
 11 12  2  0  0  0
 12 13  1  0  0  0
 13 14  2  0  0  0
 14 15  1  0  0  0
 14 16  1  0  0  0
 16 17  2  0  0  0
  4  5  1  0  0  0
  5  6  2  0  0  0
  6  7  1  0  0  0
  7  8  2  0  0  0
  8  9  1  0  0  0
  9 10  2  0  0  0
 10  1  1  0  0  0
 17 11  1  0  0  0
 10  5  1  0  0  0
 19 20  1  0  0  0
M  END
> <minimizedAffinity>
-4.02364

> <CNNscore>
0.3733493388

> <CNNaffinity>
4.5009832382

> <CNN_VS>
1.6804391146

> <CNNaffinity_variance>
0.1330425143

$$$$
[H]c1c([H])c([H])c2c(c1[H])[C@]([H])(c1c([H])c([H])c(F)c([H])c1[H])C([H])([H])C([H])([H])[C@]2([H])N([H])C([H])([H])[H]


 20 22  0  0  0  0  0  0  0  0999 V2000
   54.5343   -5.7508   -4.0914 C   0  0  0  0  0  0  0  0  0  0  0  0
   55.9927   -5.4950   -4.2754 C   0  0  0  0  0  0  0  0  0  0  0  0
   56.4282   -5.8326   -5.6820 C   0  0  0  0  0  0  0  0  0  0  0  0
   55.7281   -4.8059   -6.5848 C   0  0  0  0  0  0  0  0  0  0  0  0
   54.2862   -5.1994   -6.5350 C   0  0  0  0  0  0  0  0  0  0  0  0
   53.5194   -5.1169   -7.6646 C   0  0  0  0  0  0  0  0  0  0  0  0
   52.1905   -5.4866   -7.5956 C   0  0  0  0  0  0  0  0  0  0  0  0
   51.6168   -5.9312   -6.4390 C   0  0  0  0  0  0  0  0  0  0  0  0
   52.4244   -6.0027   -5.3102 C   0  0  0  0  0  0  0  0  0  0  0  0
   53.7534   -5.6420   -5.3433 C   0  0  0  0  0  0  0  0  0  0  0  0
   56.2853   -4.7472   -7.9302 C   0  0  0  0  0  0  0  0  0  0  0  0
   57.4828   -5.3654   -8.2081 C   0  0  0  0  0  0  0  0  0  0  0  0
   58.0439   -5.3343   -9.4668 C   0  0  0  0  0  0  0  0  0  0  0  0
   57.4029   -4.6715  -10.4848 C   0  0  0  0  0  0  0  0  0  0  0  0
   57.9674   -4.6461  -11.7266 F   0  0  0  0  0  0  0  0  0  0  0  0
   56.2113   -4.0480  -10.2380 C   0  0  0  0  0  0  0  0  0  0  0  0
   55.6498   -4.0854   -8.9570 C   0  0  0  0  0  0  0  0  0  0  0  0
   55.3176   -7.3618   -2.4777 C   0  0  0  0  0  0  0  0  0  0  0  0
   54.2516   -6.9695   -3.3568 N   0  0  0  0  0  0  0  0  0  0  0  0
   53.4059   -6.7775   -2.7748 H   0  0  0  0  0  0  0  0  0  0  0  0
 18 19  1  0  0  0
 19  1  1  0  0  0
  1  2  1  0  0  0
  2  3  1  0  0  0
  3  4  1  0  0  0
  4 11  1  0  0  0
 11 12  2  0  0  0
 12 13  1  0  0  0
 13 14  2  0  0  0
 14 15  1  0  0  0
 14 16  1  0  0  0
 16 17  2  0  0  0
  4  5  1  0  0  0
  5  6  2  0  0  0
  6  7  1  0  0  0
  7  8  2  0  0  0
  8  9  1  0  0  0
  9 10  2  0  0  0
 10  1  1  0  0  0
 17 11  1  0  0  0
 10  5  1  0  0  0
 19 20  1  0  0  0
M  END
> <minimizedAffinity>
-8.18846

> <CNNscore>
0.3526737690

> <CNNaffinity>
5.5090832710

> <CNN_VS>
1.9429091215

> <CNNaffinity_variance>
0.2451380193

$$$$
[H]c1c([H])c([H])c2c(c1[H])[C@]([H])(c1c([H])c([H])c(F)c([H])c1[H])C([H])([H])C([H])([H])[C@]2([H])N([H])C([H])([H])[H]


 20 22  0  0  0  0  0  0  0  0999 V2000
   59.1073   -4.5387  -11.4347 C   0  0  0  0  0  0  0  0  0  0  0  0
   58.5532   -5.1055  -10.1706 C   0  0  0  0  0  0  0  0  0  0  0  0
   59.1223   -6.4780   -9.8977 C   0  0  0  0  0  0  0  0  0  0  0  0
   60.6145   -6.2529   -9.6113 C   0  0  0  0  0  0  0  0  0  0  0  0
   61.1867   -5.8677  -10.9381 C   0  0  0  0  0  0  0  0  0  0  0  0
   62.4249   -6.3208  -11.3020 C   0  0  0  0  0  0  0  0  0  0  0  0
   62.9330   -5.9533  -12.5325 C   0  0  0  0  0  0  0  0  0  0  0  0
   62.2419   -5.1538  -13.3972 C   0  0  0  0  0  0  0  0  0  0  0  0
   60.9870   -4.7113  -12.9959 C   0  0  0  0  0  0  0  0  0  0  0  0
   60.4499   -5.0584  -11.7759 C   0  0  0  0  0  0  0  0  0  0  0  0
   61.2620   -7.4024   -8.9923 C   0  0  0  0  0  0  0  0  0  0  0  0
   61.0552   -8.6653   -9.4979 C   0  0  0  0  0  0  0  0  0  0  0  0
   61.6488   -9.7787   -8.9426 C   0  0  0  0  0  0  0  0  0  0  0  0
   62.4733   -9.6419   -7.8527 C   0  0  0  0  0  0  0  0  0  0  0  0
   63.0550  -10.7505   -7.3104 F   0  0  0  0  0  0  0  0  0  0  0  0
   62.6973   -8.3990   -7.3288 C   0  0  0  0  0  0  0  0  0  0  0  0
   62.0903   -7.2750   -7.8996 C   0  0  0  0  0  0  0  0  0  0  0  0
   57.0801   -3.6871  -12.4237 C   0  0  0  0  0  0  0  0  0  0  0  0
   58.1804   -4.6019  -12.5490 N   0  0  0  0  0  0  0  0  0  0  0  0
   58.7225   -4.3415  -13.4029 H   0  0  0  0  0  0  0  0  0  0  0  0
 18 19  1  0  0  0
 19  1  1  0  0  0
  1  2  1  0  0  0
  2  3  1  0  0  0
  3  4  1  0  0  0
  4 11  1  0  0  0
 11 12  2  0  0  0
 12 13  1  0  0  0
 13 14  2  0  0  0
 14 15  1  0  0  0
 14 16  1  0  0  0
 16 17  2  0  0  0
  4  5  1  0  0  0
  5  6  2  0  0  0
  6  7  1  0  0  0
  7  8  2  0  0  0
  8  9  1  0  0  0
  9 10  2  0  0  0
 10  1  1  0  0  0
 17 11  1  0  0  0
 10  5  1  0  0  0
 19 20  1  0  0  0
M  END
> <minimizedAffinity>
-1.25187

> <CNNscore>
0.3483536541

> <CNNaffinity>
3.9682796001

> <CNN_VS>
1.3823647499

> <CNNaffinity_variance>
0.1207350269

$$$$
[H]c1c([H])c([H])c2c(c1[H])[C@]([H])(c1c([H])c([H])c(F)c([H])c1[H])C([H])([H])C([H])([H])[C@]2([H])N([H])C([H])([H])[H]


 20 22  0  0  0  0  0  0  0  0999 V2000
   57.1631   -3.3488  -15.2875 C   0  0  0  0  0  0  0  0  0  0  0  0
   55.9639   -3.6110  -14.4393 C   0  0  0  0  0  0  0  0  0  0  0  0
   56.3106   -4.5083  -13.2745 C   0  0  0  0  0  0  0  0  0  0  0  0
   57.2518   -3.6810  -12.3863 C   0  0  0  0  0  0  0  0  0  0  0  0
   58.5167   -3.5916  -13.1790 C   0  0  0  0  0  0  0  0  0  0  0  0
   59.7249   -3.6658  -12.5422 C   0  0  0  0  0  0  0  0  0  0  0  0
   60.8801   -3.5821  -13.2944 C   0  0  0  0  0  0  0  0  0  0  0  0
   60.8569   -3.4277  -14.6510 C   0  0  0  0  0  0  0  0  0  0  0  0
   59.6126   -3.3559  -15.2659 C   0  0  0  0  0  0  0  0  0  0  0  0
   58.4407   -3.4359  -14.5464 C   0  0  0  0  0  0  0  0  0  0  0  0
   57.4218   -4.2388  -11.0507 C   0  0  0  0  0  0  0  0  0  0  0  0
   58.5187   -5.0185  -10.7637 C   0  0  0  0  0  0  0  0  0  0  0  0
   58.7174   -5.5646   -9.5136 C   0  0  0  0  0  0  0  0  0  0  0  0
   57.8041   -5.3342   -8.5139 C   0  0  0  0  0  0  0  0  0  0  0  0
   58.0100   -5.8801   -7.2807 F   0  0  0  0  0  0  0  0  0  0  0  0
   56.7044   -4.5631   -8.7702 C   0  0  0  0  0  0  0  0  0  0  0  0
   56.5117   -4.0131  -10.0423 C   0  0  0  0  0  0  0  0  0  0  0  0
   57.6903   -3.3768  -17.6399 C   0  0  0  0  0  0  0  0  0  0  0  0
   57.1751   -4.1140  -16.5200 N   0  0  0  0  0  0  0  0  0  0  0  0
   57.8012   -4.9337  -16.3561 H   0  0  0  0  0  0  0  0  0  0  0  0
 18 19  1  0  0  0
 19  1  1  0  0  0
  1  2  1  0  0  0
  2  3  1  0  0  0
  3  4  1  0  0  0
  4 11  1  0  0  0
 11 12  2  0  0  0
 12 13  1  0  0  0
 13 14  2  0  0  0
 14 15  1  0  0  0
 14 16  1  0  0  0
 16 17  2  0  0  0
  4  5  1  0  0  0
  5  6  2  0  0  0
  6  7  1  0  0  0
  7  8  2  0  0  0
  8  9  1  0  0  0
  9 10  2  0  0  0
 10  1  1  0  0  0
 17 11  1  0  0  0
 10  5  1  0  0  0
 19 20  1  0  0  0
M  END
> <minimizedAffinity>
-5.26903

> <CNNscore>
0.2886507511

> <CNNaffinity>
4.1929502487

> <CNN_VS>
1.2102981806

> <CNNaffinity_variance>
0.1482181251

$$$$
[H]c1c([H])c([H])c2c(c1[H])[C@]([H])(c1c([H])c([H])c(F)c([H])c1[H])C([H])([H])C([H])([H])[C@]2([H])N([H])C([H])([H])[H]


 20 22  0  0  0  0  0  0  0  0999 V2000
   51.4088   -3.2295   -7.9545 C   0  0  0  0  0  0  0  0  0  0  0  0
   52.2367   -2.5929   -9.0202 C   0  0  0  0  0  0  0  0  0  0  0  0
   53.7101   -2.7354   -8.7183 C   0  0  0  0  0  0  0  0  0  0  0  0
   54.0073   -4.2383   -8.8294 C   0  0  0  0  0  0  0  0  0  0  0  0
   53.3226   -4.8344   -7.6411 C   0  0  0  0  0  0  0  0  0  0  0  0
   53.9164   -5.8596   -6.9576 C   0  0  0  0  0  0  0  0  0  0  0  0
   53.2665   -6.3941   -5.8625 C   0  0  0  0  0  0  0  0  0  0  0  0
   52.0524   -5.9342   -5.4394 C   0  0  0  0  0  0  0  0  0  0  0  0
   51.4775   -4.8917   -6.1565 C   0  0  0  0  0  0  0  0  0  0  0  0
   52.0977   -4.3352   -7.2533 C   0  0  0  0  0  0  0  0  0  0  0  0
   55.4307   -4.5394   -8.9123 C   0  0  0  0  0  0  0  0  0  0  0  0
   56.0373   -4.6707  -10.1404 C   0  0  0  0  0  0  0  0  0  0  0  0
   57.3807   -4.9545  -10.2628 C   0  0  0  0  0  0  0  0  0  0  0  0
   58.1511   -5.1142   -9.1369 C   0  0  0  0  0  0  0  0  0  0  0  0
   59.4794   -5.3957   -9.2694 F   0  0  0  0  0  0  0  0  0  0  0  0
   57.5754   -4.9893   -7.9030 C   0  0  0  0  0  0  0  0  0  0  0  0
   56.2109   -4.7010   -7.7892 C   0  0  0  0  0  0  0  0  0  0  0  0
   50.0732   -1.2369   -7.7121 C   0  0  0  0  0  0  0  0  0  0  0  0
   50.8090   -2.2733   -7.0430 N   0  0  0  0  0  0  0  0  0  0  0  0
   50.1418   -2.8097   -6.4448 H   0  0  0  0  0  0  0  0  0  0  0  0
 18 19  1  0  0  0
 19  1  1  0  0  0
  1  2  1  0  0  0
  2  3  1  0  0  0
  3  4  1  0  0  0
  4 11  1  0  0  0
 11 12  2  0  0  0
 12 13  1  0  0  0
 13 14  2  0  0  0
 14 15  1  0  0  0
 14 16  1  0  0  0
 16 17  2  0  0  0
  4  5  1  0  0  0
  5  6  2  0  0  0
  6  7  1  0  0  0
  7  8  2  0  0  0
  8  9  1  0  0  0
  9 10  2  0  0  0
 10  1  1  0  0  0
 17 11  1  0  0  0
 10  5  1  0  0  0
 19 20  1  0  0  0
M  END
> <minimizedAffinity>
-8.50038

> <CNNscore>
0.2719977498

> <CNNaffinity>
5.7200698853

> <CNN_VS>
1.5558460951

> <CNNaffinity_variance>
0.0685627833

$$$$
[H]c1c([H])c([H])c2c(c1[H])[C@]([H])(c1c([H])c([H])c(F)c([H])c1[H])C([H])([H])C([H])([H])[C@]2([H])N([H])C([H])([H])[H]


 20 22  0  0  0  0  0  0  0  0999 V2000
   57.3564   -3.5441  -11.7014 C   0  0  0  0  0  0  0  0  0  0  0  0
   57.0002   -4.2511  -10.4366 C   0  0  0  0  0  0  0  0  0  0  0  0
   57.7406   -5.5630  -10.3229 C   0  0  0  0  0  0  0  0  0  0  0  0
   59.2208   -5.1851  -10.1632 C   0  0  0  0  0  0  0  0  0  0  0  0
   59.6082   -4.6520  -11.5055 C   0  0  0  0  0  0  0  0  0  0  0  0
   60.8444   -4.9342  -12.0183 C   0  0  0  0  0  0  0  0  0  0  0  0
   61.1804   -4.4323  -13.2603 C   0  0  0  0  0  0  0  0  0  0  0  0
   60.3210   -3.6646  -13.9930 C   0  0  0  0  0  0  0  0  0  0  0  0
   59.0733   -3.3973  -13.4423 C   0  0  0  0  0  0  0  0  0  0  0  0
   58.7054   -3.8816  -12.2065 C   0  0  0  0  0  0  0  0  0  0  0  0
   60.0500   -6.2891   -9.6966 C   0  0  0  0  0  0  0  0  0  0  0  0
   60.9696   -6.0846   -8.6938 C   0  0  0  0  0  0  0  0  0  0  0  0
   61.7727   -7.1015   -8.2234 C   0  0  0  0  0  0  0  0  0  0  0  0
   61.6653   -8.3613   -8.7599 C   0  0  0  0  0  0  0  0  0  0  0  0
   62.4656   -9.3602   -8.2876 F   0  0  0  0  0  0  0  0  0  0  0  0
   60.7600   -8.5940   -9.7577 C   0  0  0  0  0  0  0  0  0  0  0  0
   59.9492   -7.5553  -10.2284 C   0  0  0  0  0  0  0  0  0  0  0  0
   56.3678   -4.8855  -13.4438 C   0  0  0  0  0  0  0  0  0  0  0  0
   56.3323   -3.6429  -12.7243 N   0  0  0  0  0  0  0  0  0  0  0  0
   55.4129   -3.5791  -12.2329 H   0  0  0  0  0  0  0  0  0  0  0  0
 18 19  1  0  0  0
 19  1  1  0  0  0
  1  2  1  0  0  0
  2  3  1  0  0  0
  3  4  1  0  0  0
  4 11  1  0  0  0
 11 12  2  0  0  0
 12 13  1  0  0  0
 13 14  2  0  0  0
 14 15  1  0  0  0
 14 16  1  0  0  0
 16 17  2  0  0  0
  4  5  1  0  0  0
  5  6  2  0  0  0
  6  7  1  0  0  0
  7  8  2  0  0  0
  8  9  1  0  0  0
  9 10  2  0  0  0
 10  1  1  0  0  0
 17 11  1  0  0  0
 10  5  1  0  0  0
 19 20  1  0  0  0
M  END
> <minimizedAffinity>
-1.52782

> <CNNscore>
0.2680162489

> <CNNaffinity>
4.0657753944

> <CNN_VS>
1.0896939039

> <CNNaffinity_variance>
0.1454634219

$$$$
[H]c1c([H])c([H])c2c(c1[H])[C@]([H])(c1c([H])c([H])c(F)c([H])c1[H])C([H])([H])C([H])([H])[C@]2([H])N([H])C([H])([H])[H]


 20 22  0  0  0  0  0  0  0  0999 V2000
   56.5730   -5.1921   -7.2213 C   0  0  0  0  0  0  0  0  0  0  0  0
   57.8840   -5.3374   -7.9188 C   0  0  0  0  0  0  0  0  0  0  0  0
   57.6878   -5.5389   -9.4031 C   0  0  0  0  0  0  0  0  0  0  0  0
   57.1063   -4.2156   -9.9226 C   0  0  0  0  0  0  0  0  0  0  0  0
   55.7199   -4.1817   -9.3632 C   0  0  0  0  0  0  0  0  0  0  0  0
   54.6927   -3.6903  -10.1210 C   0  0  0  0  0  0  0  0  0  0  0  0
   53.4203   -3.6697   -9.5845 C   0  0  0  0  0  0  0  0  0  0  0  0
   53.1531   -4.1229   -8.3244 C   0  0  0  0  0  0  0  0  0  0  0  0
   54.2197   -4.6156   -7.5819 C   0  0  0  0  0  0  0  0  0  0  0  0
   55.5012   -4.6508   -8.0857 C   0  0  0  0  0  0  0  0  0  0  0  0
   57.1687   -4.0889  -11.3731 C   0  0  0  0  0  0  0  0  0  0  0  0
   58.3366   -3.6885  -11.9806 C   0  0  0  0  0  0  0  0  0  0  0  0
   58.4379   -3.5567  -13.3490 C   0  0  0  0  0  0  0  0  0  0  0  0
   57.3515   -3.8285  -14.1443 C   0  0  0  0  0  0  0  0  0  0  0  0
   57.4624   -3.6939  -15.4974 F   0  0  0  0  0  0  0  0  0  0  0  0
   56.1777   -4.2284  -13.5683 C   0  0  0  0  0  0  0  0  0  0  0  0
   56.0849   -4.3594  -12.1783 C   0  0  0  0  0  0  0  0  0  0  0  0
   56.6244   -6.4120   -5.1423 C   0  0  0  0  0  0  0  0  0  0  0  0
   56.1671   -6.3859   -6.5037 N   0  0  0  0  0  0  0  0  0  0  0  0
   55.1227   -6.3878   -6.4947 H   0  0  0  0  0  0  0  0  0  0  0  0
 18 19  1  0  0  0
 19  1  1  0  0  0
  1  2  1  0  0  0
  2  3  1  0  0  0
  3  4  1  0  0  0
  4 11  1  0  0  0
 11 12  2  0  0  0
 12 13  1  0  0  0
 13 14  2  0  0  0
 14 15  1  0  0  0
 14 16  1  0  0  0
 16 17  2  0  0  0
  4  5  1  0  0  0
  5  6  2  0  0  0
  6  7  1  0  0  0
  7  8  2  0  0  0
  8  9  1  0  0  0
  9 10  2  0  0  0
 10  1  1  0  0  0
 17 11  1  0  0  0
 10  5  1  0  0  0
 19 20  1  0  0  0
M  END
> <minimizedAffinity>
-7.82638

> <CNNscore>
0.2671337724

> <CNNaffinity>
4.8549737930

> <CNN_VS>
1.2969274521

> <CNNaffinity_variance>
0.2114914656

$$$$
[H]OC(=O)C([H])(Oc1c([H])c([H])c(-c2noc([H])c3c(C(=O)C4([H])C([H])([H])C([H])([H])C([H])([H])C4([H])[H])c([H])c([H])c2-3)c([H])c1[H])C(=O)O[H]


 32 35  0  0  0  0  0  0  0  0999 V2000
   54.3814   -5.3579   -6.5218 C   0  0  0  0  0  0  0  0  0  0  0  0
   55.6498   -5.8693   -6.6968 C   0  0  0  0  0  0  0  0  0  0  0  0
   56.1846   -5.4782   -7.9197 C   0  0  0  0  0  0  0  0  0  0  0  0
   55.2465   -4.6961   -8.5561 C   0  0  0  0  0  0  0  0  0  0  0  0
   55.1738   -4.0246   -9.7581 C   0  0  0  0  0  0  0  0  0  0  0  0
   54.0590   -3.3275  -10.0676 N   0  0  0  0  0  0  0  0  0  0  0  0
   53.0581   -3.2745   -9.2649 O   0  0  0  0  0  0  0  0  0  0  0  0
   53.0217   -3.8740   -8.1012 C   0  0  0  0  0  0  0  0  0  0  0  0
   54.1012   -4.6259   -7.6559 C   0  0  0  0  0  0  0  0  0  0  0  0
   56.2951   -4.0611  -10.6923 C   0  0  0  0  0  0  0  0  0  0  0  0
   56.1446   -3.5281  -11.9539 C   0  0  0  0  0  0  0  0  0  0  0  0
   57.1765   -3.5411  -12.8854 C   0  0  0  0  0  0  0  0  0  0  0  0
   58.3916   -4.0926  -12.5722 C   0  0  0  0  0  0  0  0  0  0  0  0
   58.5544   -4.6354  -11.2968 C   0  0  0  0  0  0  0  0  0  0  0  0
   57.5250   -4.6111  -10.3972 C   0  0  0  0  0  0  0  0  0  0  0  0
   59.4443   -4.1384  -13.4385 O   0  0  0  0  0  0  0  0  0  0  0  0
   59.9851   -3.1428  -14.2337 C   0  0  0  0  0  0  0  0  0  0  0  0
   59.5008   -3.2686  -15.6185 C   0  0  0  0  0  0  0  0  0  0  0  0
   58.4766   -2.6367  -16.0120 O   0  0  0  0  0  0  0  0  0  0  0  0
   60.1216   -4.0670  -16.5456 O   0  0  0  0  0  0  0  0  0  0  0  0
   59.7037   -4.9280  -16.8690 H   0  0  0  0  0  0  0  0  0  0  0  0
   61.4540   -2.9971  -14.1115 C   0  0  0  0  0  0  0  0  0  0  0  0
   62.1893   -4.0010  -14.2630 O   0  0  0  0  0  0  0  0  0  0  0  0
   61.9948   -1.7526  -13.8313 O   0  0  0  0  0  0  0  0  0  0  0  0
   62.9960   -1.6291  -13.8874 H   0  0  0  0  0  0  0  0  0  0  0  0
   53.9133   -5.4164   -4.2178 O   0  0  0  0  0  0  0  0  0  0  0  0
   53.4779   -5.5312   -5.3934 C   0  0  0  0  0  0  0  0  0  0  0  0
   52.0421   -5.8428   -5.5158 C   0  0  0  0  0  0  0  0  0  0  0  0
   51.1317   -4.6790   -5.5088 C   0  0  0  0  0  0  0  0  0  0  0  0
   49.8634   -5.2385   -6.1648 C   0  0  0  0  0  0  0  0  0  0  0  0
   50.2870   -6.3779   -7.0317 C   0  0  0  0  0  0  0  0  0  0  0  0
   51.7525   -6.5770   -6.7862 C   0  0  0  0  0  0  0  0  0  0  0  0
 26 27  2  0  0  0
 27  1  1  0  0  0
  1  2  2  0  0  0
  2  3  1  0  0  0
  3  4  2  0  0  0
  4  5  1  0  0  0
  5 10  1  0  0  0
 10 11  2  0  0  0
 11 12  1  0  0  0
 12 13  2  0  0  0
 13 16  1  0  0  0
 16 17  1  0  0  0
 17 18  1  0  0  0
 18 19  2  0  0  0
 18 20  1  0  0  0
 17 22  1  0  0  0
 22 23  2  0  0  0
 22 24  1  0  0  0
 13 14  1  0  0  0
 14 15  2  0  0  0
  5  6  2  0  0  0
  6  7  1  0  0  0
  7  8  1  0  0  0
  8  9  2  0  0  0
 27 28  1  0  0  0
 28 29  1  0  0  0
 29 30  1  0  0  0
 30 31  1  0  0  0
 31 32  1  0  0  0
  9  1  1  0  0  0
 32 28  1  0  0  0
  9  4  1  0  0  0
 15 10  1  0  0  0
 20 21  1  0  0  0
 24 25  1  0  0  0
M  END
> <minimizedAffinity>
-8.44451

> <CNNscore>
0.7409626245

> <CNNaffinity>
6.5979127884

> <CNN_VS>
4.8888068199

> <CNNaffinity_variance>
0.5392432809

$$$$
[H]OC(=O)C([H])(Oc1c([H])c([H])c(-c2noc([H])c3c(C(=O)C4([H])C([H])([H])C([H])([H])C([H])([H])C4([H])[H])c([H])c([H])c2-3)c([H])c1[H])C(=O)O[H]


 32 35  0  0  0  0  0  0  0  0999 V2000
   54.2017   -3.8397   -9.0020 C   0  0  0  0  0  0  0  0  0  0  0  0
   54.8379   -3.8109  -10.2248 C   0  0  0  0  0  0  0  0  0  0  0  0
   56.1303   -4.3162  -10.1305 C   0  0  0  0  0  0  0  0  0  0  0  0
   56.3422   -4.6821   -8.8197 C   0  0  0  0  0  0  0  0  0  0  0  0
   57.3856   -5.2317   -8.1056 C   0  0  0  0  0  0  0  0  0  0  0  0
   57.2390   -5.4685   -6.7839 N   0  0  0  0  0  0  0  0  0  0  0  0
   56.1447   -5.1923   -6.1715 O   0  0  0  0  0  0  0  0  0  0  0  0
   55.0941   -4.6690   -6.7523 C   0  0  0  0  0  0  0  0  0  0  0  0
   55.1062   -4.3741   -8.1094 C   0  0  0  0  0  0  0  0  0  0  0  0
   58.6425   -5.5610   -8.7715 C   0  0  0  0  0  0  0  0  0  0  0  0
   59.6887   -6.0691   -8.0328 C   0  0  0  0  0  0  0  0  0  0  0  0
   60.9091   -6.3943   -8.6138 C   0  0  0  0  0  0  0  0  0  0  0  0
   61.1109   -6.2164   -9.9578 C   0  0  0  0  0  0  0  0  0  0  0  0
   60.0574   -5.7022  -10.7151 C   0  0  0  0  0  0  0  0  0  0  0  0
   58.8660   -5.3896  -10.1216 C   0  0  0  0  0  0  0  0  0  0  0  0
   62.2825   -6.5143  -10.5898 O   0  0  0  0  0  0  0  0  0  0  0  0
   62.5264   -7.3604  -11.6577 C   0  0  0  0  0  0  0  0  0  0  0  0
   63.3389   -8.5111  -11.2289 C   0  0  0  0  0  0  0  0  0  0  0  0
   63.8373   -8.5614  -10.0660 O   0  0  0  0  0  0  0  0  0  0  0  0
   63.5992   -9.5764  -12.0534 O   0  0  0  0  0  0  0  0  0  0  0  0
   64.5176   -9.7327  -12.4441 H   0  0  0  0  0  0  0  0  0  0  0  0
   63.0279   -6.6779  -12.8728 C   0  0  0  0  0  0  0  0  0  0  0  0
   63.0999   -7.3114  -13.9522 O   0  0  0  0  0  0  0  0  0  0  0  0
   63.4104   -5.3482  -12.7992 O   0  0  0  0  0  0  0  0  0  0  0  0
   63.6172   -4.8495  -13.6531 H   0  0  0  0  0  0  0  0  0  0  0  0
   52.2259   -2.6468   -9.4542 O   0  0  0  0  0  0  0  0  0  0  0  0
   52.8546   -3.4010   -8.6664 C   0  0  0  0  0  0  0  0  0  0  0  0
   52.1378   -3.7789   -7.4347 C   0  0  0  0  0  0  0  0  0  0  0  0
   50.9286   -2.9866   -7.1290 C   0  0  0  0  0  0  0  0  0  0  0  0
   50.1545   -3.9058   -6.1762 C   0  0  0  0  0  0  0  0  0  0  0  0
   50.5831   -5.3044   -6.4755 C   0  0  0  0  0  0  0  0  0  0  0  0
   51.6873   -5.2041   -7.4845 C   0  0  0  0  0  0  0  0  0  0  0  0
 26 27  2  0  0  0
 27  1  1  0  0  0
  1  2  2  0  0  0
  2  3  1  0  0  0
  3  4  2  0  0  0
  4  5  1  0  0  0
  5 10  1  0  0  0
 10 11  2  0  0  0
 11 12  1  0  0  0
 12 13  2  0  0  0
 13 16  1  0  0  0
 16 17  1  0  0  0
 17 18  1  0  0  0
 18 19  2  0  0  0
 18 20  1  0  0  0
 17 22  1  0  0  0
 22 23  2  0  0  0
 22 24  1  0  0  0
 13 14  1  0  0  0
 14 15  2  0  0  0
  5  6  2  0  0  0
  6  7  1  0  0  0
  7  8  1  0  0  0
  8  9  2  0  0  0
 27 28  1  0  0  0
 28 29  1  0  0  0
 29 30  1  0  0  0
 30 31  1  0  0  0
 31 32  1  0  0  0
  9  1  1  0  0  0
 32 28  1  0  0  0
  9  4  1  0  0  0
 15 10  1  0  0  0
 20 21  1  0  0  0
 24 25  1  0  0  0
M  END
> <minimizedAffinity>
-7.61700

> <CNNscore>
0.7116600871

> <CNNaffinity>
6.2990550995

> <CNN_VS>
4.4827861786

> <CNNaffinity_variance>
0.7207512856

$$$$
[H]OC(=O)C([H])(Oc1c([H])c([H])c(-c2noc([H])c3c(C(=O)C4([H])C([H])([H])C([H])([H])C([H])([H])C4([H])[H])c([H])c([H])c2-3)c([H])c1[H])C(=O)O[H]


 32 35  0  0  0  0  0  0  0  0999 V2000
   52.2611   -5.3201   -7.0139 C   0  0  0  0  0  0  0  0  0  0  0  0
   53.1635   -6.3156   -6.7049 C   0  0  0  0  0  0  0  0  0  0  0  0
   54.3838   -6.1011   -7.3368 C   0  0  0  0  0  0  0  0  0  0  0  0
   54.2759   -4.9425   -8.0736 C   0  0  0  0  0  0  0  0  0  0  0  0
   55.1106   -4.2144   -8.8946 C   0  0  0  0  0  0  0  0  0  0  0  0
   54.6570   -3.0811   -9.4726 N   0  0  0  0  0  0  0  0  0  0  0  0
   53.4593   -2.6620   -9.2756 O   0  0  0  0  0  0  0  0  0  0  0  0
   52.5859   -3.2752   -8.5166 C   0  0  0  0  0  0  0  0  0  0  0  0
   52.9187   -4.4530   -7.8602 C   0  0  0  0  0  0  0  0  0  0  0  0
   56.4794   -4.6607   -9.1373 C   0  0  0  0  0  0  0  0  0  0  0  0
   56.9503   -4.7323  -10.4301 C   0  0  0  0  0  0  0  0  0  0  0  0
   58.2425   -5.1558  -10.7193 C   0  0  0  0  0  0  0  0  0  0  0  0
   59.0986   -5.5202   -9.7128 C   0  0  0  0  0  0  0  0  0  0  0  0
   58.6312   -5.4513   -8.3996 C   0  0  0  0  0  0  0  0  0  0  0  0
   57.3562   -5.0316   -8.1394 C   0  0  0  0  0  0  0  0  0  0  0  0
   60.3770   -5.9447   -9.9275 O   0  0  0  0  0  0  0  0  0  0  0  0
   61.1449   -6.8494   -9.2150 C   0  0  0  0  0  0  0  0  0  0  0  0
   62.5176   -6.3430   -9.0494 C   0  0  0  0  0  0  0  0  0  0  0  0
   62.9705   -6.0463   -7.9048 O   0  0  0  0  0  0  0  0  0  0  0  0
   63.3694   -6.1651  -10.1101 O   0  0  0  0  0  0  0  0  0  0  0  0
   63.6219   -5.2439  -10.4389 H   0  0  0  0  0  0  0  0  0  0  0  0
   61.0638   -8.2418   -9.7133 C   0  0  0  0  0  0  0  0  0  0  0  0
   61.3934   -8.4950  -10.8960 O   0  0  0  0  0  0  0  0  0  0  0  0
   60.6247   -9.2453   -8.8647 O   0  0  0  0  0  0  0  0  0  0  0  0
   60.7035  -10.2078   -9.1615 H   0  0  0  0  0  0  0  0  0  0  0  0
   50.0114   -6.0016   -6.9417 O   0  0  0  0  0  0  0  0  0  0  0  0
   50.8823   -5.1718   -6.5705 C   0  0  0  0  0  0  0  0  0  0  0  0
   50.4015   -4.0905   -5.6912 C   0  0  0  0  0  0  0  0  0  0  0  0
   49.4764   -3.1218   -6.3149 C   0  0  0  0  0  0  0  0  0  0  0  0
   48.7695   -2.5017   -5.1034 C   0  0  0  0  0  0  0  0  0  0  0  0
   48.8305   -3.5071   -4.0012 C   0  0  0  0  0  0  0  0  0  0  0  0
   49.6754   -4.6387   -4.5042 C   0  0  0  0  0  0  0  0  0  0  0  0
 26 27  2  0  0  0
 27  1  1  0  0  0
  1  2  2  0  0  0
  2  3  1  0  0  0
  3  4  2  0  0  0
  4  5  1  0  0  0
  5 10  1  0  0  0
 10 11  2  0  0  0
 11 12  1  0  0  0
 12 13  2  0  0  0
 13 16  1  0  0  0
 16 17  1  0  0  0
 17 18  1  0  0  0
 18 19  2  0  0  0
 18 20  1  0  0  0
 17 22  1  0  0  0
 22 23  2  0  0  0
 22 24  1  0  0  0
 13 14  1  0  0  0
 14 15  2  0  0  0
  5  6  2  0  0  0
  6  7  1  0  0  0
  7  8  1  0  0  0
  8  9  2  0  0  0
 27 28  1  0  0  0
 28 29  1  0  0  0
 29 30  1  0  0  0
 30 31  1  0  0  0
 31 32  1  0  0  0
  9  1  1  0  0  0
 32 28  1  0  0  0
  9  4  1  0  0  0
 15 10  1  0  0  0
 20 21  1  0  0  0
 24 25  1  0  0  0
M  END
> <minimizedAffinity>
-10.46742

> <CNNscore>
0.7009241581

> <CNNaffinity>
6.3406753540

> <CNN_VS>
4.4443325996

> <CNNaffinity_variance>
0.2442327291

$$$$
[H]OC(=O)C([H])(Oc1c([H])c([H])c(-c2noc([H])c3c(C(=O)C4([H])C([H])([H])C([H])([H])C([H])([H])C4([H])[H])c([H])c([H])c2-3)c([H])c1[H])C(=O)O[H]


 32 35  0  0  0  0  0  0  0  0999 V2000
   52.6207   -5.2386   -6.8223 C   0  0  0  0  0  0  0  0  0  0  0  0
   53.7107   -6.0733   -6.9494 C   0  0  0  0  0  0  0  0  0  0  0  0
   54.5254   -5.6781   -8.0051 C   0  0  0  0  0  0  0  0  0  0  0  0
   53.9558   -4.5632   -8.5790 C   0  0  0  0  0  0  0  0  0  0  0  0
   54.2686   -3.7252   -9.6282 C   0  0  0  0  0  0  0  0  0  0  0  0
   53.4546   -2.6875   -9.9199 N   0  0  0  0  0  0  0  0  0  0  0  0
   52.3891   -2.4606   -9.2400 O   0  0  0  0  0  0  0  0  0  0  0  0
   51.9991   -3.1924   -8.2264 C   0  0  0  0  0  0  0  0  0  0  0  0
   52.7423   -4.2919   -7.8169 C   0  0  0  0  0  0  0  0  0  0  0  0
   55.4742   -3.9525  -10.4196 C   0  0  0  0  0  0  0  0  0  0  0  0
   55.4434   -3.7361  -11.7800 C   0  0  0  0  0  0  0  0  0  0  0  0
   56.5597   -3.9422  -12.5825 C   0  0  0  0  0  0  0  0  0  0  0  0
   57.7409   -4.3731  -12.0368 C   0  0  0  0  0  0  0  0  0  0  0  0
   57.7826   -4.5953  -10.6596 C   0  0  0  0  0  0  0  0  0  0  0  0
   56.6718   -4.3858   -9.8903 C   0  0  0  0  0  0  0  0  0  0  0  0
   58.8717   -4.5951  -12.7667 O   0  0  0  0  0  0  0  0  0  0  0  0
   59.7375   -3.6933  -13.3609 C   0  0  0  0  0  0  0  0  0  0  0  0
   59.2029   -3.2419  -14.6565 C   0  0  0  0  0  0  0  0  0  0  0  0
   58.3031   -3.9002  -15.2566 O   0  0  0  0  0  0  0  0  0  0  0  0
   59.6443   -2.1010  -15.2776 O   0  0  0  0  0  0  0  0  0  0  0  0
   60.2142   -2.1374  -16.1110 H   0  0  0  0  0  0  0  0  0  0  0  0
   61.1480   -4.1432  -13.4059 C   0  0  0  0  0  0  0  0  0  0  0  0
   61.9552   -3.5701  -14.1750 O   0  0  0  0  0  0  0  0  0  0  0  0
   61.5554   -5.1916  -12.5967 O   0  0  0  0  0  0  0  0  0  0  0  0
   62.5410   -5.4022  -12.5263 H   0  0  0  0  0  0  0  0  0  0  0  0
   50.3469   -5.4445   -6.2583 O   0  0  0  0  0  0  0  0  0  0  0  0
   51.5320   -5.3039   -5.8578 C   0  0  0  0  0  0  0  0  0  0  0  0
   51.7068   -5.2148   -4.3966 C   0  0  0  0  0  0  0  0  0  0  0  0
   50.4627   -5.0874   -3.6097 C   0  0  0  0  0  0  0  0  0  0  0  0
   50.8979   -5.5481   -2.2131 C   0  0  0  0  0  0  0  0  0  0  0  0
   52.0683   -6.4564   -2.3985 C   0  0  0  0  0  0  0  0  0  0  0  0
   52.4052   -6.4232   -3.8590 C   0  0  0  0  0  0  0  0  0  0  0  0
 26 27  2  0  0  0
 27  1  1  0  0  0
  1  2  2  0  0  0
  2  3  1  0  0  0
  3  4  2  0  0  0
  4  5  1  0  0  0
  5 10  1  0  0  0
 10 11  2  0  0  0
 11 12  1  0  0  0
 12 13  2  0  0  0
 13 16  1  0  0  0
 16 17  1  0  0  0
 17 18  1  0  0  0
 18 19  2  0  0  0
 18 20  1  0  0  0
 17 22  1  0  0  0
 22 23  2  0  0  0
 22 24  1  0  0  0
 13 14  1  0  0  0
 14 15  2  0  0  0
  5  6  2  0  0  0
  6  7  1  0  0  0
  7  8  1  0  0  0
  8  9  2  0  0  0
 27 28  1  0  0  0
 28 29  1  0  0  0
 29 30  1  0  0  0
 30 31  1  0  0  0
 31 32  1  0  0  0
  9  1  1  0  0  0
 32 28  1  0  0  0
  9  4  1  0  0  0
 15 10  1  0  0  0
 20 21  1  0  0  0
 24 25  1  0  0  0
M  END
> <minimizedAffinity>
-8.42902

> <CNNscore>
0.6787968278

> <CNNaffinity>
6.3615732193

> <CNN_VS>
4.3182158470

> <CNNaffinity_variance>
0.4455657601

$$$$
[H]OC(=O)C([H])(Oc1c([H])c([H])c(-c2noc([H])c3c(C(=O)C4([H])C([H])([H])C([H])([H])C([H])([H])C4([H])[H])c([H])c([H])c2-3)c([H])c1[H])C(=O)O[H]


 32 35  0  0  0  0  0  0  0  0999 V2000
   54.4115   -3.8458   -9.1821 C   0  0  0  0  0  0  0  0  0  0  0  0
   55.0497   -3.9456  -10.4001 C   0  0  0  0  0  0  0  0  0  0  0  0
   56.3267   -4.4774  -10.2558 C   0  0  0  0  0  0  0  0  0  0  0  0
   56.5264   -4.7297   -8.9167 C   0  0  0  0  0  0  0  0  0  0  0  0
   57.5526   -5.2426   -8.1520 C   0  0  0  0  0  0  0  0  0  0  0  0
   57.3976   -5.3551   -6.8149 N   0  0  0  0  0  0  0  0  0  0  0  0
   56.3111   -4.9933   -6.2341 O   0  0  0  0  0  0  0  0  0  0  0  0
   55.2768   -4.4944   -6.8636 C   0  0  0  0  0  0  0  0  0  0  0  0
   55.2991   -4.3234   -8.2417 C   0  0  0  0  0  0  0  0  0  0  0  0
   58.8001   -5.6667   -8.7808 C   0  0  0  0  0  0  0  0  0  0  0  0
   58.9880   -5.4509  -10.1286 C   0  0  0  0  0  0  0  0  0  0  0  0
   60.1532   -5.8393  -10.7798 C   0  0  0  0  0  0  0  0  0  0  0  0
   61.1641   -6.4575  -10.0909 C   0  0  0  0  0  0  0  0  0  0  0  0
   60.9837   -6.6809   -8.7251 C   0  0  0  0  0  0  0  0  0  0  0  0
   59.8289   -6.2899   -8.1061 C   0  0  0  0  0  0  0  0  0  0  0  0
   62.3311   -6.8639  -10.6686 O   0  0  0  0  0  0  0  0  0  0  0  0
   63.6203   -6.3904  -10.4964 C   0  0  0  0  0  0  0  0  0  0  0  0
   64.1658   -5.9030  -11.7744 C   0  0  0  0  0  0  0  0  0  0  0  0
   63.4790   -5.9486  -12.8372 O   0  0  0  0  0  0  0  0  0  0  0  0
   65.4302   -5.3820  -11.8840 O   0  0  0  0  0  0  0  0  0  0  0  0
   66.1718   -5.8833  -12.3523 H   0  0  0  0  0  0  0  0  0  0  0  0
   64.5155   -7.3153   -9.7636 C   0  0  0  0  0  0  0  0  0  0  0  0
   65.6152   -6.8973   -9.3304 O   0  0  0  0  0  0  0  0  0  0  0  0
   64.1246   -8.6300   -9.5672 O   0  0  0  0  0  0  0  0  0  0  0  0
   64.6690   -9.2164   -8.9504 H   0  0  0  0  0  0  0  0  0  0  0  0
   52.4796   -2.6259   -9.7395 O   0  0  0  0  0  0  0  0  0  0  0  0
   53.0773   -3.3400   -8.8925 C   0  0  0  0  0  0  0  0  0  0  0  0
   52.3397   -3.6026   -7.6432 C   0  0  0  0  0  0  0  0  0  0  0  0
   51.1104   -2.8067   -7.4462 C   0  0  0  0  0  0  0  0  0  0  0  0
   50.3311   -3.6376   -6.4195 C   0  0  0  0  0  0  0  0  0  0  0  0
   50.7904   -5.0510   -6.5633 C   0  0  0  0  0  0  0  0  0  0  0  0
   51.9151   -5.0339   -7.5544 C   0  0  0  0  0  0  0  0  0  0  0  0
 26 27  2  0  0  0
 27  1  1  0  0  0
  1  2  2  0  0  0
  2  3  1  0  0  0
  3  4  2  0  0  0
  4  5  1  0  0  0
  5 10  1  0  0  0
 10 11  2  0  0  0
 11 12  1  0  0  0
 12 13  2  0  0  0
 13 16  1  0  0  0
 16 17  1  0  0  0
 17 18  1  0  0  0
 18 19  2  0  0  0
 18 20  1  0  0  0
 17 22  1  0  0  0
 22 23  2  0  0  0
 22 24  1  0  0  0
 13 14  1  0  0  0
 14 15  2  0  0  0
  5  6  2  0  0  0
  6  7  1  0  0  0
  7  8  1  0  0  0
  8  9  2  0  0  0
 27 28  1  0  0  0
 28 29  1  0  0  0
 29 30  1  0  0  0
 30 31  1  0  0  0
 31 32  1  0  0  0
  9  1  1  0  0  0
 32 28  1  0  0  0
  9  4  1  0  0  0
 15 10  1  0  0  0
 20 21  1  0  0  0
 24 25  1  0  0  0
M  END
> <minimizedAffinity>
-7.06914

> <CNNscore>
0.6302397251

> <CNNaffinity>
6.2172293663

> <CNN_VS>
3.9183449745

> <CNNaffinity_variance>
0.6881682277

$$$$
[H]OC(=O)C([H])(Oc1c([H])c([H])c(-c2noc([H])c3c(C(=O)C4([H])C([H])([H])C([H])([H])C([H])([H])C4([H])[H])c([H])c([H])c2-3)c([H])c1[H])C(=O)O[H]


 32 35  0  0  0  0  0  0  0  0999 V2000
   55.0404   -5.4811   -6.0431 C   0  0  0  0  0  0  0  0  0  0  0  0
   56.3492   -5.8306   -6.2996 C   0  0  0  0  0  0  0  0  0  0  0  0
   56.7227   -5.4669   -7.5891 C   0  0  0  0  0  0  0  0  0  0  0  0
   55.6358   -4.8681   -8.1866 C   0  0  0  0  0  0  0  0  0  0  0  0
   55.3724   -4.3067   -9.4180 C   0  0  0  0  0  0  0  0  0  0  0  0
   54.1497   -3.7904   -9.6690 N   0  0  0  0  0  0  0  0  0  0  0  0
   53.2200   -3.8099   -8.7835 O   0  0  0  0  0  0  0  0  0  0  0  0
   53.3627   -4.3177   -7.5848 C   0  0  0  0  0  0  0  0  0  0  0  0
   54.5692   -4.8824   -7.1920 C   0  0  0  0  0  0  0  0  0  0  0  0
   56.4079   -4.2651  -10.4464 C   0  0  0  0  0  0  0  0  0  0  0  0
   56.1190   -3.7196  -11.6782 C   0  0  0  0  0  0  0  0  0  0  0  0
   57.0645   -3.6594  -12.6955 C   0  0  0  0  0  0  0  0  0  0  0  0
   58.3302   -4.1482  -12.5009 C   0  0  0  0  0  0  0  0  0  0  0  0
   58.6331   -4.7029  -11.2566 C   0  0  0  0  0  0  0  0  0  0  0  0
   57.6866   -4.7511  -10.2709 C   0  0  0  0  0  0  0  0  0  0  0  0
   59.3038   -4.1206  -13.4559 O   0  0  0  0  0  0  0  0  0  0  0  0
   60.6258   -3.7203  -13.3664 C   0  0  0  0  0  0  0  0  0  0  0  0
   60.8467   -2.4916  -14.1472 C   0  0  0  0  0  0  0  0  0  0  0  0
   60.6377   -2.4650  -15.3958 O   0  0  0  0  0  0  0  0  0  0  0  0
   61.2864   -1.3249  -13.5748 O   0  0  0  0  0  0  0  0  0  0  0  0
   62.2212   -0.9759  -13.7328 H   0  0  0  0  0  0  0  0  0  0  0  0
   61.6071   -4.7974  -13.6326 C   0  0  0  0  0  0  0  0  0  0  0  0
   62.0010   -5.5217  -12.6882 O   0  0  0  0  0  0  0  0  0  0  0  0
   62.0760   -4.9892  -14.9222 O   0  0  0  0  0  0  0  0  0  0  0  0
   62.6331   -5.8074  -15.1247 H   0  0  0  0  0  0  0  0  0  0  0  0
   53.0481   -5.9988   -4.9058 O   0  0  0  0  0  0  0  0  0  0  0  0
   54.2651   -5.6861   -4.8280 C   0  0  0  0  0  0  0  0  0  0  0  0
   54.8048   -5.5523   -3.4626 C   0  0  0  0  0  0  0  0  0  0  0  0
   55.3467   -6.7899   -2.8643 C   0  0  0  0  0  0  0  0  0  0  0  0
   56.2681   -6.2562   -1.7607 C   0  0  0  0  0  0  0  0  0  0  0  0
   56.6866   -4.8822   -2.1687 C   0  0  0  0  0  0  0  0  0  0  0  0
   55.9198   -4.5567   -3.4151 C   0  0  0  0  0  0  0  0  0  0  0  0
 26 27  2  0  0  0
 27  1  1  0  0  0
  1  2  2  0  0  0
  2  3  1  0  0  0
  3  4  2  0  0  0
  4  5  1  0  0  0
  5 10  1  0  0  0
 10 11  2  0  0  0
 11 12  1  0  0  0
 12 13  2  0  0  0
 13 16  1  0  0  0
 16 17  1  0  0  0
 17 18  1  0  0  0
 18 19  2  0  0  0
 18 20  1  0  0  0
 17 22  1  0  0  0
 22 23  2  0  0  0
 22 24  1  0  0  0
 13 14  1  0  0  0
 14 15  2  0  0  0
  5  6  2  0  0  0
  6  7  1  0  0  0
  7  8  1  0  0  0
  8  9  2  0  0  0
 27 28  1  0  0  0
 28 29  1  0  0  0
 29 30  1  0  0  0
 30 31  1  0  0  0
 31 32  1  0  0  0
  9  1  1  0  0  0
 32 28  1  0  0  0
  9  4  1  0  0  0
 15 10  1  0  0  0
 20 21  1  0  0  0
 24 25  1  0  0  0
M  END
> <minimizedAffinity>
-8.40907

> <CNNscore>
0.5971123576

> <CNNaffinity>
6.1510105133

> <CNN_VS>
3.6728444099

> <CNNaffinity_variance>
0.2783973217

$$$$
[H]OC(=O)C([H])(Oc1c([H])c([H])c(-c2noc([H])c3c(C(=O)C4([H])C([H])([H])C([H])([H])C([H])([H])C4([H])[H])c([H])c([H])c2-3)c([H])c1[H])C(=O)O[H]


 32 35  0  0  0  0  0  0  0  0999 V2000
   55.1887   -4.2599   -8.9622 C   0  0  0  0  0  0  0  0  0  0  0  0
   55.6901   -4.8397   -7.8163 C   0  0  0  0  0  0  0  0  0  0  0  0
   56.9462   -5.3928   -8.0415 C   0  0  0  0  0  0  0  0  0  0  0  0
   57.2713   -5.1699   -9.3612 C   0  0  0  0  0  0  0  0  0  0  0  0
   58.3457   -5.4605  -10.1749 C   0  0  0  0  0  0  0  0  0  0  0  0
   58.3279   -5.0731  -11.4687 N   0  0  0  0  0  0  0  0  0  0  0  0
   57.3282   -4.4369  -11.9635 O   0  0  0  0  0  0  0  0  0  0  0  0
   56.2591   -4.1109  -11.2811 C   0  0  0  0  0  0  0  0  0  0  0  0
   56.1439   -4.4469   -9.9385 C   0  0  0  0  0  0  0  0  0  0  0  0
   59.5001   -6.1795   -9.6436 C   0  0  0  0  0  0  0  0  0  0  0  0
   59.7819   -7.4463  -10.1064 C   0  0  0  0  0  0  0  0  0  0  0  0
   60.8642   -8.1784   -9.6316 C   0  0  0  0  0  0  0  0  0  0  0  0
   61.6947   -7.6545   -8.6753 C   0  0  0  0  0  0  0  0  0  0  0  0
   61.4178   -6.3720   -8.1998 C   0  0  0  0  0  0  0  0  0  0  0  0
   60.3475   -5.6707   -8.6818 C   0  0  0  0  0  0  0  0  0  0  0  0
   62.7721   -8.3190   -8.1668 O   0  0  0  0  0  0  0  0  0  0  0  0
   63.0768   -9.6689   -8.1916 C   0  0  0  0  0  0  0  0  0  0  0  0
   62.3917  -10.3726   -7.0944 C   0  0  0  0  0  0  0  0  0  0  0  0
   62.9781  -11.2799   -6.4339 O   0  0  0  0  0  0  0  0  0  0  0  0
   61.0987  -10.0902   -6.7329 O   0  0  0  0  0  0  0  0  0  0  0  0
   60.3421  -10.7315   -6.9252 H   0  0  0  0  0  0  0  0  0  0  0  0
   64.5244   -9.9642   -8.2964 C   0  0  0  0  0  0  0  0  0  0  0  0
   64.9666  -10.5318   -9.3230 O   0  0  0  0  0  0  0  0  0  0  0  0
   65.3698   -9.6086   -7.2578 O   0  0  0  0  0  0  0  0  0  0  0  0
   66.3685   -9.6832   -7.3911 H   0  0  0  0  0  0  0  0  0  0  0  0
   53.5728   -3.2089  -10.3096 O   0  0  0  0  0  0  0  0  0  0  0  0
   53.9145   -3.5830   -9.1572 C   0  0  0  0  0  0  0  0  0  0  0  0
   52.9548   -3.2865   -8.0780 C   0  0  0  0  0  0  0  0  0  0  0  0
   51.8133   -2.4272   -8.4546 C   0  0  0  0  0  0  0  0  0  0  0  0
   50.7820   -2.7381   -7.3630 C   0  0  0  0  0  0  0  0  0  0  0  0
   51.0874   -4.1073   -6.8517 C   0  0  0  0  0  0  0  0  0  0  0  0
   52.3543   -4.5402   -7.5262 C   0  0  0  0  0  0  0  0  0  0  0  0
 26 27  2  0  0  0
 27  1  1  0  0  0
  1  2  2  0  0  0
  2  3  1  0  0  0
  3  4  2  0  0  0
  4  5  1  0  0  0
  5 10  1  0  0  0
 10 11  2  0  0  0
 11 12  1  0  0  0
 12 13  2  0  0  0
 13 16  1  0  0  0
 16 17  1  0  0  0
 17 18  1  0  0  0
 18 19  2  0  0  0
 18 20  1  0  0  0
 17 22  1  0  0  0
 22 23  2  0  0  0
 22 24  1  0  0  0
 13 14  1  0  0  0
 14 15  2  0  0  0
  5  6  2  0  0  0
  6  7  1  0  0  0
  7  8  1  0  0  0
  8  9  2  0  0  0
 27 28  1  0  0  0
 28 29  1  0  0  0
 29 30  1  0  0  0
 30 31  1  0  0  0
 31 32  1  0  0  0
  9  1  1  0  0  0
 32 28  1  0  0  0
  9  4  1  0  0  0
 15 10  1  0  0  0
 20 21  1  0  0  0
 24 25  1  0  0  0
M  END
> <minimizedAffinity>
-7.62491

> <CNNscore>
0.5347131491

> <CNNaffinity>
5.7282915115

> <CNN_VS>
3.0629928112

> <CNNaffinity_variance>
0.5986876488

$$$$
[H]OC(=O)C([H])(Oc1c([H])c([H])c(-c2noc([H])c3c(C(=O)C4([H])C([H])([H])C([H])([H])C([H])([H])C4([H])[H])c([H])c([H])c2-3)c([H])c1[H])C(=O)O[H]


 32 35  0  0  0  0  0  0  0  0999 V2000
   53.7992   -5.6954   -5.5958 C   0  0  0  0  0  0  0  0  0  0  0  0
   54.9132   -6.4848   -5.4043 C   0  0  0  0  0  0  0  0  0  0  0  0
   55.8591   -6.2688   -6.4009 C   0  0  0  0  0  0  0  0  0  0  0  0
   55.3523   -5.3194   -7.2605 C   0  0  0  0  0  0  0  0  0  0  0  0
   55.7912   -4.6930   -8.4076 C   0  0  0  0  0  0  0  0  0  0  0  0
   55.0047   -3.7750   -9.0101 N   0  0  0  0  0  0  0  0  0  0  0  0
   53.8503   -3.4692   -8.5382 O   0  0  0  0  0  0  0  0  0  0  0  0
   53.3377   -4.0024   -7.4575 C   0  0  0  0  0  0  0  0  0  0  0  0
   54.0389   -4.9610   -6.7376 C   0  0  0  0  0  0  0  0  0  0  0  0
   57.1000   -5.0147   -8.9690 C   0  0  0  0  0  0  0  0  0  0  0  0
   57.2928   -4.9321  -10.3308 C   0  0  0  0  0  0  0  0  0  0  0  0
   58.5159   -5.2324  -10.9195 C   0  0  0  0  0  0  0  0  0  0  0  0
   59.5814   -5.6253  -10.1520 C   0  0  0  0  0  0  0  0  0  0  0  0
   59.3965   -5.7122   -8.7715 C   0  0  0  0  0  0  0  0  0  0  0  0
   58.1843   -5.4118   -8.2149 C   0  0  0  0  0  0  0  0  0  0  0  0
   60.8068   -5.9345  -10.6656 O   0  0  0  0  0  0  0  0  0  0  0  0
   61.8131   -6.7306  -10.1467 C   0  0  0  0  0  0  0  0  0  0  0  0
   62.9704   -6.7577  -11.0567 C   0  0  0  0  0  0  0  0  0  0  0  0
   62.9527   -7.4525  -12.1151 O   0  0  0  0  0  0  0  0  0  0  0  0
   64.1162   -6.0440  -10.8117 O   0  0  0  0  0  0  0  0  0  0  0  0
   64.9760   -6.4986  -10.5383 H   0  0  0  0  0  0  0  0  0  0  0  0
   61.3602   -8.0666   -9.6950 C   0  0  0  0  0  0  0  0  0  0  0  0
   61.5821   -8.4281   -8.5153 O   0  0  0  0  0  0  0  0  0  0  0  0
   60.6973   -8.8981  -10.5832 O   0  0  0  0  0  0  0  0  0  0  0  0
   60.2689   -9.7446  -10.2358 H   0  0  0  0  0  0  0  0  0  0  0  0
   52.6718   -5.5162   -3.5397 O   0  0  0  0  0  0  0  0  0  0  0  0
   52.5880   -5.6200   -4.7914 C   0  0  0  0  0  0  0  0  0  0  0  0
   51.2199   -5.6576   -5.3397 C   0  0  0  0  0  0  0  0  0  0  0  0
   50.6731   -4.3593   -5.7855 C   0  0  0  0  0  0  0  0  0  0  0  0
   49.5518   -4.7766   -6.7449 C   0  0  0  0  0  0  0  0  0  0  0  0
   49.9058   -6.1299   -7.2670 C   0  0  0  0  0  0  0  0  0  0  0  0
   51.1360   -6.5626   -6.5274 C   0  0  0  0  0  0  0  0  0  0  0  0
 26 27  2  0  0  0
 27  1  1  0  0  0
  1  2  2  0  0  0
  2  3  1  0  0  0
  3  4  2  0  0  0
  4  5  1  0  0  0
  5 10  1  0  0  0
 10 11  2  0  0  0
 11 12  1  0  0  0
 12 13  2  0  0  0
 13 16  1  0  0  0
 16 17  1  0  0  0
 17 18  1  0  0  0
 18 19  2  0  0  0
 18 20  1  0  0  0
 17 22  1  0  0  0
 22 23  2  0  0  0
 22 24  1  0  0  0
 13 14  1  0  0  0
 14 15  2  0  0  0
  5  6  2  0  0  0
  6  7  1  0  0  0
  7  8  1  0  0  0
  8  9  2  0  0  0
 27 28  1  0  0  0
 28 29  1  0  0  0
 29 30  1  0  0  0
 30 31  1  0  0  0
 31 32  1  0  0  0
  9  1  1  0  0  0
 32 28  1  0  0  0
  9  4  1  0  0  0
 15 10  1  0  0  0
 20 21  1  0  0  0
 24 25  1  0  0  0
M  END
> <minimizedAffinity>
-8.14032

> <CNNscore>
0.5339763165

> <CNNaffinity>
6.2728433609

> <CNN_VS>
3.3495497704

> <CNNaffinity_variance>
0.5608643293

$$$$
[H]OC(=O)C([H])(Oc1c([H])c([H])c(-c2noc([H])c3c(C(=O)C4([H])C([H])([H])C([H])([H])C([H])([H])C4([H])[H])c([H])c([H])c2-3)c([H])c1[H])C(=O)O[H]


 32 35  0  0  0  0  0  0  0  0999 V2000
   53.8592   -5.3223   -6.9622 C   0  0  0  0  0  0  0  0  0  0  0  0
   54.6548   -6.3608   -6.5271 C   0  0  0  0  0  0  0  0  0  0  0  0
   55.8910   -6.3475   -7.1643 C   0  0  0  0  0  0  0  0  0  0  0  0
   55.9028   -5.2790   -8.0332 C   0  0  0  0  0  0  0  0  0  0  0  0
   56.8082   -4.7415   -8.9232 C   0  0  0  0  0  0  0  0  0  0  0  0
   56.4733   -3.6441   -9.6360 N   0  0  0  0  0  0  0  0  0  0  0  0
   55.3247   -3.0852   -9.5048 O   0  0  0  0  0  0  0  0  0  0  0  0
   54.3926   -3.5126   -8.6902 C   0  0  0  0  0  0  0  0  0  0  0  0
   54.6027   -4.6325   -7.8960 C   0  0  0  0  0  0  0  0  0  0  0  0
   58.1242   -5.3500   -9.0945 C   0  0  0  0  0  0  0  0  0  0  0  0
   58.7153   -5.3489  -10.3391 C   0  0  0  0  0  0  0  0  0  0  0  0
   59.9637   -5.9191  -10.5604 C   0  0  0  0  0  0  0  0  0  0  0  0
   60.6535   -6.5078   -9.5327 C   0  0  0  0  0  0  0  0  0  0  0  0
   60.0635   -6.5143   -8.2679 C   0  0  0  0  0  0  0  0  0  0  0  0
   58.8345   -5.9472   -8.0742 C   0  0  0  0  0  0  0  0  0  0  0  0
   61.8805   -7.0850   -9.6817 O   0  0  0  0  0  0  0  0  0  0  0  0
   63.0992   -6.7395   -9.1238 C   0  0  0  0  0  0  0  0  0  0  0  0
   62.9001   -6.0265   -7.8510 C   0  0  0  0  0  0  0  0  0  0  0  0
   63.0991   -4.7791   -7.7633 O   0  0  0  0  0  0  0  0  0  0  0  0
   62.4959   -6.6643   -6.7055 O   0  0  0  0  0  0  0  0  0  0  0  0
   63.1258   -6.8102   -5.9292 H   0  0  0  0  0  0  0  0  0  0  0  0
   64.0290   -6.0679  -10.0610 C   0  0  0  0  0  0  0  0  0  0  0  0
   63.7435   -6.0113  -11.2803 O   0  0  0  0  0  0  0  0  0  0  0  0
   65.2016   -5.5112   -9.5762 O   0  0  0  0  0  0  0  0  0  0  0  0
   65.7612   -4.9356  -10.1896 H   0  0  0  0  0  0  0  0  0  0  0  0
   51.7594   -5.8661   -6.0534 O   0  0  0  0  0  0  0  0  0  0  0  0
   52.5026   -4.9835   -6.5569 C   0  0  0  0  0  0  0  0  0  0  0  0
   51.9025   -3.6437   -6.6924 C   0  0  0  0  0  0  0  0  0  0  0  0
   51.6963   -3.1717   -8.0773 C   0  0  0  0  0  0  0  0  0  0  0  0
   50.6294   -2.0832   -7.9078 C   0  0  0  0  0  0  0  0  0  0  0  0
   49.8685   -2.4082   -6.6650 C   0  0  0  0  0  0  0  0  0  0  0  0
   50.5589   -3.5822   -6.0384 C   0  0  0  0  0  0  0  0  0  0  0  0
 26 27  2  0  0  0
 27  1  1  0  0  0
  1  2  2  0  0  0
  2  3  1  0  0  0
  3  4  2  0  0  0
  4  5  1  0  0  0
  5 10  1  0  0  0
 10 11  2  0  0  0
 11 12  1  0  0  0
 12 13  2  0  0  0
 13 16  1  0  0  0
 16 17  1  0  0  0
 17 18  1  0  0  0
 18 19  2  0  0  0
 18 20  1  0  0  0
 17 22  1  0  0  0
 22 23  2  0  0  0
 22 24  1  0  0  0
 13 14  1  0  0  0
 14 15  2  0  0  0
  5  6  2  0  0  0
  6  7  1  0  0  0
  7  8  1  0  0  0
  8  9  2  0  0  0
 27 28  1  0  0  0
 28 29  1  0  0  0
 29 30  1  0  0  0
 30 31  1  0  0  0
 31 32  1  0  0  0
  9  1  1  0  0  0
 32 28  1  0  0  0
  9  4  1  0  0  0
 15 10  1  0  0  0
 20 21  1  0  0  0
 24 25  1  0  0  0
M  END
> <minimizedAffinity>
-5.59085

> <CNNscore>
0.5316819549

> <CNNaffinity>
6.0976338387

> <CNN_VS>
3.2420017719

> <CNNaffinity_variance>
0.9787575006

$$$$
[H]c1c(OC([H])([H])[H])c([H])c2c3nnc(SC([H])([H])[H])nc3n(C([H])([H])[H])c2c1[H]


 18 20  0  0  0  0  0  0  0  0999 V2000
   57.5295   -4.5613  -11.5032 C   0  0  0  0  0  0  0  0  0  0  0  0
   58.2269   -5.1451  -10.4671 C   0  0  0  0  0  0  0  0  0  0  0  0
   57.6211   -5.2358   -9.2125 C   0  0  0  0  0  0  0  0  0  0  0  0
   56.3392   -4.7550   -8.9822 C   0  0  0  0  0  0  0  0  0  0  0  0
   55.6581   -4.1755  -10.0278 C   0  0  0  0  0  0  0  0  0  0  0  0
   56.2573   -4.0815  -11.2847 C   0  0  0  0  0  0  0  0  0  0  0  0
   54.4248   -3.7821   -9.5592 C   0  0  0  0  0  0  0  0  0  0  0  0
   53.3962   -3.1755  -10.1719 N   0  0  0  0  0  0  0  0  0  0  0  0
   52.3015   -2.9029   -9.4826 N   0  0  0  0  0  0  0  0  0  0  0  0
   52.2591   -3.2433   -8.1924 C   0  0  0  0  0  0  0  0  0  0  0  0
   53.2675   -3.8501   -7.5469 N   0  0  0  0  0  0  0  0  0  0  0  0
   54.4054   -4.1454   -8.2213 C   0  0  0  0  0  0  0  0  0  0  0  0
   55.5623   -4.7338   -7.8714 N   0  0  0  0  0  0  0  0  0  0  0  0
   55.9107   -5.2501   -6.5428 C   0  0  0  0  0  0  0  0  0  0  0  0
   57.4957   -3.7549  -13.8351 C   0  0  0  0  0  0  0  0  0  0  0  0
   58.0742   -4.4421  -12.7675 O   0  0  0  0  0  0  0  0  0  0  0  0
   50.7623   -2.8586   -7.2885 S   0  0  0  0  0  0  0  0  0  0  0  0
   50.4836   -4.1470   -6.0293 C   0  0  0  0  0  0  0  0  0  0  0  0
 15 16  1  0  0  0
 16  1  1  0  0  0
  1  2  2  0  0  0
  2  3  1  0  0  0
  3  4  2  0  0  0
  4  5  1  0  0  0
  5  6  2  0  0  0
  5  7  1  0  0  0
  7  8  2  0  0  0
  8  9  1  0  0  0
  9 10  2  0  0  0
 10 17  1  0  0  0
 17 18  1  0  0  0
 10 11  1  0  0  0
 11 12  2  0  0  0
 12 13  1  0  0  0
 13 14  1  0  0  0
  6  1  1  0  0  0
 12  7  1  0  0  0
 13  4  1  0  0  0
M  END
> <minimizedAffinity>
-7.99607

> <CNNscore>
0.9394374490

> <CNNaffinity>
5.7613258362

> <CNN_VS>
5.4124050140

> <CNNaffinity_variance>
0.1225694194

$$$$
[H]c1c(OC([H])([H])[H])c([H])c2c3nnc(SC([H])([H])[H])nc3n(C([H])([H])[H])c2c1[H]


 18 20  0  0  0  0  0  0  0  0999 V2000
   58.7206   -5.1631  -10.0666 C   0  0  0  0  0  0  0  0  0  0  0  0
   59.0650   -5.7014   -8.8451 C   0  0  0  0  0  0  0  0  0  0  0  0
   58.1303   -5.6752   -7.8084 C   0  0  0  0  0  0  0  0  0  0  0  0
   56.8674   -5.1232   -7.9752 C   0  0  0  0  0  0  0  0  0  0  0  0
   56.5409   -4.5905   -9.2011 C   0  0  0  0  0  0  0  0  0  0  0  0
   57.4702   -4.6132  -10.2420 C   0  0  0  0  0  0  0  0  0  0  0  0
   55.2531   -4.1106   -9.1211 C   0  0  0  0  0  0  0  0  0  0  0  0
   54.4749   -3.5046  -10.0315 N   0  0  0  0  0  0  0  0  0  0  0  0
   53.2510   -3.1354   -9.6942 N   0  0  0  0  0  0  0  0  0  0  0  0
   52.8309   -3.3803   -8.4510 C   0  0  0  0  0  0  0  0  0  0  0  0
   53.5805   -3.9833   -7.5149 N   0  0  0  0  0  0  0  0  0  0  0  0
   54.8403   -4.3760   -7.8244 C   0  0  0  0  0  0  0  0  0  0  0  0
   55.8155   -4.9882   -7.1308 N   0  0  0  0  0  0  0  0  0  0  0  0
   55.7484   -5.4229   -5.7308 C   0  0  0  0  0  0  0  0  0  0  0  0
   60.9171   -5.6211  -11.0937 C   0  0  0  0  0  0  0  0  0  0  0  0
   59.6012   -5.1588  -11.1314 O   0  0  0  0  0  0  0  0  0  0  0  0
   51.1690   -2.8663   -8.0275 S   0  0  0  0  0  0  0  0  0  0  0  0
   50.7368   -3.5485   -6.3932 C   0  0  0  0  0  0  0  0  0  0  0  0
 15 16  1  0  0  0
 16  1  1  0  0  0
  1  2  2  0  0  0
  2  3  1  0  0  0
  3  4  2  0  0  0
  4  5  1  0  0  0
  5  6  2  0  0  0
  5  7  1  0  0  0
  7  8  2  0  0  0
  8  9  1  0  0  0
  9 10  2  0  0  0
 10 17  1  0  0  0
 17 18  1  0  0  0
 10 11  1  0  0  0
 11 12  2  0  0  0
 12 13  1  0  0  0
 13 14  1  0  0  0
  6  1  1  0  0  0
 12  7  1  0  0  0
 13  4  1  0  0  0
M  END
> <minimizedAffinity>
-5.29889

> <CNNscore>
0.7651762962

> <CNNaffinity>
5.3008623123

> <CNN_VS>
4.0560941696

> <CNNaffinity_variance>
0.1603471339

$$$$
[H]c1c(OC([H])([H])[H])c([H])c2c3nnc(SC([H])([H])[H])nc3n(C([H])([H])[H])c2c1[H]


 18 20  0  0  0  0  0  0  0  0999 V2000
   49.2729   -3.2484   -5.3992 C   0  0  0  0  0  0  0  0  0  0  0  0
   49.6348   -4.2730   -4.5508 C   0  0  0  0  0  0  0  0  0  0  0  0
   50.7972   -4.9965   -4.8239 C   0  0  0  0  0  0  0  0  0  0  0  0
   51.5951   -4.7119   -5.9238 C   0  0  0  0  0  0  0  0  0  0  0  0
   51.2185   -3.6859   -6.7597 C   0  0  0  0  0  0  0  0  0  0  0  0
   50.0579   -2.9584   -6.4929 C   0  0  0  0  0  0  0  0  0  0  0  0
   52.1557   -3.5970   -7.7642 C   0  0  0  0  0  0  0  0  0  0  0  0
   52.2494   -2.7711   -8.8181 N   0  0  0  0  0  0  0  0  0  0  0  0
   53.2691   -2.8966   -9.6503 N   0  0  0  0  0  0  0  0  0  0  0  0
   54.1748   -3.8476   -9.4102 C   0  0  0  0  0  0  0  0  0  0  0  0
   54.1134   -4.6908   -8.3676 N   0  0  0  0  0  0  0  0  0  0  0  0
   53.0826   -4.5918   -7.4933 C   0  0  0  0  0  0  0  0  0  0  0  0
   52.7447   -5.2665   -6.3809 N   0  0  0  0  0  0  0  0  0  0  0  0
   53.4812   -6.3859   -5.7827 C   0  0  0  0  0  0  0  0  0  0  0  0
   47.1331   -2.7927   -4.2577 C   0  0  0  0  0  0  0  0  0  0  0  0
   48.1345   -2.4958   -5.1828 O   0  0  0  0  0  0  0  0  0  0  0  0
   55.5419   -3.9906  -10.5574 S   0  0  0  0  0  0  0  0  0  0  0  0
   56.9754   -4.7019   -9.6842 C   0  0  0  0  0  0  0  0  0  0  0  0
 15 16  1  0  0  0
 16  1  1  0  0  0
  1  2  2  0  0  0
  2  3  1  0  0  0
  3  4  2  0  0  0
  4  5  1  0  0  0
  5  6  2  0  0  0
  5  7  1  0  0  0
  7  8  2  0  0  0
  8  9  1  0  0  0
  9 10  2  0  0  0
 10 17  1  0  0  0
 17 18  1  0  0  0
 10 11  1  0  0  0
 11 12  2  0  0  0
 12 13  1  0  0  0
 13 14  1  0  0  0
  6  1  1  0  0  0
 12  7  1  0  0  0
 13  4  1  0  0  0
M  END
> <minimizedAffinity>
-7.99758

> <CNNscore>
0.7454833388

> <CNNaffinity>
5.9912424088

> <CNN_VS>
4.4663715363

> <CNNaffinity_variance>
0.1706142873

$$$$
[H]c1c(OC([H])([H])[H])c([H])c2c3nnc(SC([H])([H])[H])nc3n(C([H])([H])[H])c2c1[H]


 18 20  0  0  0  0  0  0  0  0999 V2000
   54.2314   -6.3697   -6.3688 C   0  0  0  0  0  0  0  0  0  0  0  0
   54.5060   -5.5813   -7.4659 C   0  0  0  0  0  0  0  0  0  0  0  0
   53.6127   -4.5638   -7.8064 C   0  0  0  0  0  0  0  0  0  0  0  0
   52.4591   -4.3264   -7.0714 C   0  0  0  0  0  0  0  0  0  0  0  0
   52.2011   -5.1230   -5.9796 C   0  0  0  0  0  0  0  0  0  0  0  0
   53.0896   -6.1419   -5.6333 C   0  0  0  0  0  0  0  0  0  0  0  0
   51.0165   -4.6990   -5.4207 C   0  0  0  0  0  0  0  0  0  0  0  0
   50.3336   -5.1382   -4.3520 N   0  0  0  0  0  0  0  0  0  0  0  0
   49.1995   -4.5452   -4.0198 N   0  0  0  0  0  0  0  0  0  0  0  0
   48.7719   -3.5237   -4.7654 C   0  0  0  0  0  0  0  0  0  0  0  0
   49.4276   -3.0579   -5.8400 N   0  0  0  0  0  0  0  0  0  0  0  0
   50.5938   -3.6408   -6.2105 C   0  0  0  0  0  0  0  0  0  0  0  0
   51.4652   -3.4147   -7.2088 N   0  0  0  0  0  0  0  0  0  0  0  0
   51.3557   -2.3803   -8.2439 C   0  0  0  0  0  0  0  0  0  0  0  0
   55.9606   -7.3444   -4.9029 C   0  0  0  0  0  0  0  0  0  0  0  0
   55.0761   -7.3920   -5.9809 O   0  0  0  0  0  0  0  0  0  0  0  0
   47.2323   -2.7444   -4.2883 S   0  0  0  0  0  0  0  0  0  0  0  0
   46.2618   -3.9164   -3.2843 C   0  0  0  0  0  0  0  0  0  0  0  0
 15 16  1  0  0  0
 16  1  1  0  0  0
  1  2  2  0  0  0
  2  3  1  0  0  0
  3  4  2  0  0  0
  4  5  1  0  0  0
  5  6  2  0  0  0
  5  7  1  0  0  0
  7  8  2  0  0  0
  8  9  1  0  0  0
  9 10  2  0  0  0
 10 17  1  0  0  0
 17 18  1  0  0  0
 10 11  1  0  0  0
 11 12  2  0  0  0
 12 13  1  0  0  0
 13 14  1  0  0  0
  6  1  1  0  0  0
 12  7  1  0  0  0
 13  4  1  0  0  0
M  END
> <minimizedAffinity>
-6.33854

> <CNNscore>
0.7322569489

> <CNNaffinity>
6.0369377136

> <CNN_VS>
4.4205894470

> <CNNaffinity_variance>
0.0744156688

$$$$
[H]c1c(OC([H])([H])[H])c([H])c2c3nnc(SC([H])([H])[H])nc3n(C([H])([H])[H])c2c1[H]


 18 20  0  0  0  0  0  0  0  0999 V2000
   56.7078   -4.0829  -10.3099 C   0  0  0  0  0  0  0  0  0  0  0  0
   57.5528   -4.8437   -9.5303 C   0  0  0  0  0  0  0  0  0  0  0  0
   57.0747   -5.3638   -8.3261 C   0  0  0  0  0  0  0  0  0  0  0  0
   55.7749   -5.1354   -7.8950 C   0  0  0  0  0  0  0  0  0  0  0  0
   54.9455   -4.3740   -8.6859 C   0  0  0  0  0  0  0  0  0  0  0  0
   55.4166   -3.8510   -9.8909 C   0  0  0  0  0  0  0  0  0  0  0  0
   53.7244   -4.2903   -8.0556 C   0  0  0  0  0  0  0  0  0  0  0  0
   52.5868   -3.6704   -8.4062 N   0  0  0  0  0  0  0  0  0  0  0  0
   51.5354   -3.7467   -7.6082 N   0  0  0  0  0  0  0  0  0  0  0  0
   51.6448   -4.4425   -6.4742 C   0  0  0  0  0  0  0  0  0  0  0  0
   52.7653   -5.0744   -6.0912 N   0  0  0  0  0  0  0  0  0  0  0  0
   53.8632   -5.0185   -6.8840 C   0  0  0  0  0  0  0  0  0  0  0  0
   55.1025   -5.5300   -6.7859 N   0  0  0  0  0  0  0  0  0  0  0  0
   55.6210   -6.3542   -5.6881 C   0  0  0  0  0  0  0  0  0  0  0  0
   56.5602   -3.8171  -12.7587 C   0  0  0  0  0  0  0  0  0  0  0  0
   57.1215   -3.5408  -11.5116 O   0  0  0  0  0  0  0  0  0  0  0  0
   50.2025   -4.5244   -5.4165 S   0  0  0  0  0  0  0  0  0  0  0  0
   49.2647   -2.9690   -5.5729 C   0  0  0  0  0  0  0  0  0  0  0  0
 15 16  1  0  0  0
 16  1  1  0  0  0
  1  2  2  0  0  0
  2  3  1  0  0  0
  3  4  2  0  0  0
  4  5  1  0  0  0
  5  6  2  0  0  0
  5  7  1  0  0  0
  7  8  2  0  0  0
  8  9  1  0  0  0
  9 10  2  0  0  0
 10 17  1  0  0  0
 17 18  1  0  0  0
 10 11  1  0  0  0
 11 12  2  0  0  0
 12 13  1  0  0  0
 13 14  1  0  0  0
  6  1  1  0  0  0
 12  7  1  0  0  0
 13  4  1  0  0  0
M  END
> <minimizedAffinity>
-7.29247

> <CNNscore>
0.7181549072

> <CNNaffinity>
5.7154417038

> <CNN_VS>
4.1045722961

> <CNNaffinity_variance>
0.1719065607

$$$$
[H]c1c(OC([H])([H])[H])c([H])c2c3nnc(SC([H])([H])[H])nc3n(C([H])([H])[H])c2c1[H]


 18 20  0  0  0  0  0  0  0  0999 V2000
   50.0437   -3.6643   -6.0745 C   0  0  0  0  0  0  0  0  0  0  0  0
   50.2987   -4.6726   -5.1696 C   0  0  0  0  0  0  0  0  0  0  0  0
   51.4941   -5.3863   -5.2736 C   0  0  0  0  0  0  0  0  0  0  0  0
   52.4292   -5.1079   -6.2613 C   0  0  0  0  0  0  0  0  0  0  0  0
   52.1580   -4.0982   -7.1558 C   0  0  0  0  0  0  0  0  0  0  0  0
   50.9652   -3.3805   -7.0578 C   0  0  0  0  0  0  0  0  0  0  0  0
   53.2202   -4.0125   -8.0273 C   0  0  0  0  0  0  0  0  0  0  0  0
   53.4463   -3.2005   -9.0719 N   0  0  0  0  0  0  0  0  0  0  0  0
   54.5693   -3.3259   -9.7583 N   0  0  0  0  0  0  0  0  0  0  0  0
   55.4438   -4.2628   -9.3846 C   0  0  0  0  0  0  0  0  0  0  0  0
   55.2516   -5.0919   -8.3466 N   0  0  0  0  0  0  0  0  0  0  0  0
   54.1121   -4.9926   -7.6196 C   0  0  0  0  0  0  0  0  0  0  0  0
   53.6349   -5.6555   -6.5520 N   0  0  0  0  0  0  0  0  0  0  0  0
   54.2955   -6.7577   -5.8435 C   0  0  0  0  0  0  0  0  0  0  0  0
   48.2531   -2.4794   -4.8583 C   0  0  0  0  0  0  0  0  0  0  0  0
   48.8794   -2.9220   -6.0239 O   0  0  0  0  0  0  0  0  0  0  0  0
   56.9534   -4.4060  -10.3364 S   0  0  0  0  0  0  0  0  0  0  0  0
   58.2078   -5.2656   -9.3309 C   0  0  0  0  0  0  0  0  0  0  0  0
 15 16  1  0  0  0
 16  1  1  0  0  0
  1  2  2  0  0  0
  2  3  1  0  0  0
  3  4  2  0  0  0
  4  5  1  0  0  0
  5  6  2  0  0  0
  5  7  1  0  0  0
  7  8  2  0  0  0
  8  9  1  0  0  0
  9 10  2  0  0  0
 10 17  1  0  0  0
 17 18  1  0  0  0
 10 11  1  0  0  0
 11 12  2  0  0  0
 12 13  1  0  0  0
 13 14  1  0  0  0
  6  1  1  0  0  0
 12  7  1  0  0  0
 13  4  1  0  0  0
M  END
> <minimizedAffinity>
-7.78175

> <CNNscore>
0.5334811211

> <CNNaffinity>
5.6609697342

> <CNN_VS>
3.0200204849

> <CNNaffinity_variance>
0.1709303707

$$$$
[H]c1c(OC([H])([H])[H])c([H])c2c3nnc(SC([H])([H])[H])nc3n(C([H])([H])[H])c2c1[H]


 18 20  0  0  0  0  0  0  0  0999 V2000
   60.9704   -6.8593   -9.8958 C   0  0  0  0  0  0  0  0  0  0  0  0
   61.2077   -7.2945   -8.6094 C   0  0  0  0  0  0  0  0  0  0  0  0
   60.2546   -7.0353   -7.6227 C   0  0  0  0  0  0  0  0  0  0  0  0
   59.0783   -6.3531   -7.9025 C   0  0  0  0  0  0  0  0  0  0  0  0
   58.8581   -5.9262   -9.1918 C   0  0  0  0  0  0  0  0  0  0  0  0
   59.8064   -6.1817  -10.1833 C   0  0  0  0  0  0  0  0  0  0  0  0
   57.6407   -5.2840   -9.2197 C   0  0  0  0  0  0  0  0  0  0  0  0
   56.9733   -4.6930  -10.2230 N   0  0  0  0  0  0  0  0  0  0  0  0
   55.7976   -4.1388   -9.9806 N   0  0  0  0  0  0  0  0  0  0  0  0
   55.3140   -4.1875   -8.7372 C   0  0  0  0  0  0  0  0  0  0  0  0
   55.9528   -4.7690   -7.7100 N   0  0  0  0  0  0  0  0  0  0  0  0
   57.1602   -5.3477   -7.9207 C   0  0  0  0  0  0  0  0  0  0  0  0
   58.0285   -5.9938   -7.1235 N   0  0  0  0  0  0  0  0  0  0  0  0
   57.8659   -6.2557   -5.6889 C   0  0  0  0  0  0  0  0  0  0  0  0
   62.8232   -6.1691  -11.3724 C   0  0  0  0  0  0  0  0  0  0  0  0
   61.8746   -7.0849  -10.9160 O   0  0  0  0  0  0  0  0  0  0  0  0
   53.7202   -3.4264   -8.4437 S   0  0  0  0  0  0  0  0  0  0  0  0
   53.1247   -2.6817   -9.9975 C   0  0  0  0  0  0  0  0  0  0  0  0
 15 16  1  0  0  0
 16  1  1  0  0  0
  1  2  2  0  0  0
  2  3  1  0  0  0
  3  4  2  0  0  0
  4  5  1  0  0  0
  5  6  2  0  0  0
  5  7  1  0  0  0
  7  8  2  0  0  0
  8  9  1  0  0  0
  9 10  2  0  0  0
 10 17  1  0  0  0
 17 18  1  0  0  0
 10 11  1  0  0  0
 11 12  2  0  0  0
 12 13  1  0  0  0
 13 14  1  0  0  0
  6  1  1  0  0  0
 12  7  1  0  0  0
 13  4  1  0  0  0
M  END
> <minimizedAffinity>
1.38918

> <CNNscore>
0.5102566481

> <CNNaffinity>
4.3949966431

> <CNN_VS>
2.2425763607

> <CNNaffinity_variance>
0.1736212373

$$$$
[H]c1c(OC([H])([H])[H])c([H])c2c3nnc(SC([H])([H])[H])nc3n(C([H])([H])[H])c2c1[H]


 18 20  0  0  0  0  0  0  0  0999 V2000
   50.6193   -5.8359   -3.0210 C   0  0  0  0  0  0  0  0  0  0  0  0
   49.5533   -4.9799   -3.1985 C   0  0  0  0  0  0  0  0  0  0  0  0
   49.5114   -4.1827   -4.3438 C   0  0  0  0  0  0  0  0  0  0  0  0
   50.5119   -4.2295   -5.3052 C   0  0  0  0  0  0  0  0  0  0  0  0
   51.5682   -5.0896   -5.1116 C   0  0  0  0  0  0  0  0  0  0  0  0
   51.6167   -5.8896   -3.9691 C   0  0  0  0  0  0  0  0  0  0  0  0
   52.4194   -4.9582   -6.1856 C   0  0  0  0  0  0  0  0  0  0  0  0
   53.5801   -5.5663   -6.4762 N   0  0  0  0  0  0  0  0  0  0  0  0
   54.2121   -5.2545   -7.5948 N   0  0  0  0  0  0  0  0  0  0  0  0
   53.6687   -4.3390   -8.4003 C   0  0  0  0  0  0  0  0  0  0  0  0
   52.5109   -3.7107   -8.1424 N   0  0  0  0  0  0  0  0  0  0  0  0
   51.8348   -4.0048   -7.0052 C   0  0  0  0  0  0  0  0  0  0  0  0
   50.6816   -3.5636   -6.4739 N   0  0  0  0  0  0  0  0  0  0  0  0
   49.7850   -2.5558   -7.0515 C   0  0  0  0  0  0  0  0  0  0  0  0
   51.8882   -6.8994   -1.1912 C   0  0  0  0  0  0  0  0  0  0  0  0
   50.7181   -6.6502   -1.9091 O   0  0  0  0  0  0  0  0  0  0  0  0
   54.5513   -3.9397   -9.9060 S   0  0  0  0  0  0  0  0  0  0  0  0
   56.2976   -4.4269   -9.7154 C   0  0  0  0  0  0  0  0  0  0  0  0
 15 16  1  0  0  0
 16  1  1  0  0  0
  1  2  2  0  0  0
  2  3  1  0  0  0
  3  4  2  0  0  0
  4  5  1  0  0  0
  5  6  2  0  0  0
  5  7  1  0  0  0
  7  8  2  0  0  0
  8  9  1  0  0  0
  9 10  2  0  0  0
 10 17  1  0  0  0
 17 18  1  0  0  0
 10 11  1  0  0  0
 11 12  2  0  0  0
 12 13  1  0  0  0
 13 14  1  0  0  0
  6  1  1  0  0  0
 12  7  1  0  0  0
 13  4  1  0  0  0
M  END
> <minimizedAffinity>
-7.30836

> <CNNscore>
0.5016935468

> <CNNaffinity>
5.7342424393

> <CNN_VS>
2.8768324852

> <CNNaffinity_variance>
0.3074546158

$$$$
[H]c1c(OC([H])([H])[H])c([H])c2c3nnc(SC([H])([H])[H])nc3n(C([H])([H])[H])c2c1[H]


 18 20  0  0  0  0  0  0  0  0999 V2000
   56.5283   -5.6961   -6.2434 C   0  0  0  0  0  0  0  0  0  0  0  0
   55.2334   -5.2467   -6.0950 C   0  0  0  0  0  0  0  0  0  0  0  0
   54.5861   -4.6787   -7.1939 C   0  0  0  0  0  0  0  0  0  0  0  0
   55.2104   -4.5552   -8.4277 C   0  0  0  0  0  0  0  0  0  0  0  0
   56.5028   -5.0091   -8.5576 C   0  0  0  0  0  0  0  0  0  0  0  0
   57.1561   -5.5780   -7.4634 C   0  0  0  0  0  0  0  0  0  0  0  0
   56.8999   -4.7808   -9.8558 C   0  0  0  0  0  0  0  0  0  0  0  0
   58.0565   -5.0367  -10.4868 N   0  0  0  0  0  0  0  0  0  0  0  0
   58.1835   -4.7131  -11.7624 N   0  0  0  0  0  0  0  0  0  0  0  0
   57.1490   -4.1388  -12.3806 C   0  0  0  0  0  0  0  0  0  0  0  0
   55.9785   -3.8677  -11.7822 N   0  0  0  0  0  0  0  0  0  0  0  0
   55.8116   -4.1857  -10.4753 C   0  0  0  0  0  0  0  0  0  0  0  0
   54.7896   -4.0488   -9.6129 N   0  0  0  0  0  0  0  0  0  0  0  0
   53.4759   -3.4632   -9.9038 C   0  0  0  0  0  0  0  0  0  0  0  0
   56.6817   -7.1365   -4.2457 C   0  0  0  0  0  0  0  0  0  0  0  0
   57.2222   -6.2674   -5.1940 O   0  0  0  0  0  0  0  0  0  0  0  0
   57.3554   -3.7125  -14.1072 S   0  0  0  0  0  0  0  0  0  0  0  0
   59.1161   -3.3622  -14.4241 C   0  0  0  0  0  0  0  0  0  0  0  0
 15 16  1  0  0  0
 16  1  1  0  0  0
  1  2  2  0  0  0
  2  3  1  0  0  0
  3  4  2  0  0  0
  4  5  1  0  0  0
  5  6  2  0  0  0
  5  7  1  0  0  0
  7  8  2  0  0  0
  8  9  1  0  0  0
  9 10  2  0  0  0
 10 17  1  0  0  0
 17 18  1  0  0  0
 10 11  1  0  0  0
 11 12  2  0  0  0
 12 13  1  0  0  0
 13 14  1  0  0  0
  6  1  1  0  0  0
 12  7  1  0  0  0
 13  4  1  0  0  0
M  END
> <minimizedAffinity>
-6.07183

> <CNNscore>
0.4936996996

> <CNNaffinity>
5.0700664520

> <CNN_VS>
2.5030903816

> <CNNaffinity_variance>
0.2311871350

$$$$
[H]OC1(c2c([H])c([H])c(C([H])([H])C([H])([H])C([H])([H])[H])c([H])c2[H])C([H])([H])C([H])([H])N(C([H])(c2c([H])c([H])c([H])c([H])c2[H])c2c([H])c([H])c([H])c([H])c2[H])C([H])([H])C1([H])[H]


 30 33  0  0  0  0  0  0  0  0999 V2000
   54.7350   -3.8834   -9.3655 C   0  0  0  0  0  0  0  0  0  0  0  0
   54.6808   -5.1815   -8.8109 O   0  0  0  0  0  0  0  0  0  0  0  0
   55.0643   -2.9401   -8.2730 C   0  0  0  0  0  0  0  0  0  0  0  0
   54.0804   -3.1539   -7.1551 C   0  0  0  0  0  0  0  0  0  0  0  0
   52.8260   -3.6608   -7.5713 N   0  0  0  0  0  0  0  0  0  0  0  0
   52.3353   -3.4496   -8.8482 C   0  0  0  0  0  0  0  0  0  0  0  0
   53.3834   -3.5672   -9.9299 C   0  0  0  0  0  0  0  0  0  0  0  0
   55.5596   -5.6263   -8.9189 H   0  0  0  0  0  0  0  0  0  0  0  0
   57.8151   -4.0971  -12.3400 C   0  0  0  0  0  0  0  0  0  0  0  0
   56.5382   -3.6956  -12.6828 C   0  0  0  0  0  0  0  0  0  0  0  0
   55.5248   -3.5994  -11.7311 C   0  0  0  0  0  0  0  0  0  0  0  0
   55.7722   -3.9075  -10.4055 C   0  0  0  0  0  0  0  0  0  0  0  0
   57.0537   -4.3009  -10.0913 C   0  0  0  0  0  0  0  0  0  0  0  0
   58.0646   -4.4008  -11.0174 C   0  0  0  0  0  0  0  0  0  0  0  0
   58.8180   -4.2926  -13.4074 C   0  0  0  0  0  0  0  0  0  0  0  0
   60.7430   -2.9268  -14.1367 C   0  0  0  0  0  0  0  0  0  0  0  0
   60.1740   -3.7380  -13.0042 C   0  0  0  0  0  0  0  0  0  0  0  0
   52.2229   -4.5690   -6.6787 C   0  0  0  0  0  0  0  0  0  0  0  0
   51.0136   -3.9979   -5.9567 C   0  0  0  0  0  0  0  0  0  0  0  0
   50.6258   -4.5257   -4.7228 C   0  0  0  0  0  0  0  0  0  0  0  0
   49.5160   -4.0669   -4.0689 C   0  0  0  0  0  0  0  0  0  0  0  0
   48.7826   -3.0582   -4.6668 C   0  0  0  0  0  0  0  0  0  0  0  0
   49.1630   -2.5396   -5.8695 C   0  0  0  0  0  0  0  0  0  0  0  0
   50.3051   -3.0184   -6.5328 C   0  0  0  0  0  0  0  0  0  0  0  0
   51.7418   -5.8397   -7.2178 C   0  0  0  0  0  0  0  0  0  0  0  0
   50.4339   -6.2583   -6.9891 C   0  0  0  0  0  0  0  0  0  0  0  0
   49.9274   -7.4040   -7.5337 C   0  0  0  0  0  0  0  0  0  0  0  0
   50.7190   -8.2033   -8.3537 C   0  0  0  0  0  0  0  0  0  0  0  0
   52.0074   -7.8128   -8.5854 C   0  0  0  0  0  0  0  0  0  0  0  0
   52.4969   -6.6463   -8.0171 C   0  0  0  0  0  0  0  0  0  0  0  0
 16 17  1  0  0  0
 17 15  1  0  0  0
 15  9  1  0  0  0
  9 10  2  0  0  0
 10 11  1  0  0  0
 11 12  2  0  0  0
 12  1  1  0  0  0
  1  2  1  0  0  0
  1  3  1  0  0  0
  3  4  1  0  0  0
  4  5  1  0  0  0
  5 18  1  0  0  0
 18 19  1  0  0  0
 19 20  2  0  0  0
 20 21  1  0  0  0
 21 22  2  0  0  0
 22 23  1  0  0  0
 23 24  2  0  0  0
 18 25  1  0  0  0
 25 26  2  0  0  0
 26 27  1  0  0  0
 27 28  2  0  0  0
 28 29  1  0  0  0
 29 30  2  0  0  0
  5  6  1  0  0  0
  6  7  1  0  0  0
 12 13  1  0  0  0
 13 14  2  0  0  0
 14  9  1  0  0  0
  7  1  1  0  0  0
 24 19  1  0  0  0
 30 25  1  0  0  0
  2  8  1  0  0  0
M  END
> <minimizedAffinity>
-4.73595

> <CNNscore>
0.4448894262

> <CNNaffinity>
6.3645448685

> <CNN_VS>
2.8315186501

> <CNNaffinity_variance>
0.4871832728

$$$$
[H]OC1(c2c([H])c([H])c(C([H])([H])C([H])([H])C([H])([H])[H])c([H])c2[H])C([H])([H])C([H])([H])N(C([H])(c2c([H])c([H])c([H])c([H])c2[H])c2c([H])c([H])c([H])c([H])c2[H])C([H])([H])C1([H])[H]


 30 33  0  0  0  0  0  0  0  0999 V2000
   63.3162   -6.3812  -11.2209 C   0  0  0  0  0  0  0  0  0  0  0  0
   64.4560   -6.6854  -10.4439 O   0  0  0  0  0  0  0  0  0  0  0  0
   62.3159   -5.7545  -10.3272 C   0  0  0  0  0  0  0  0  0  0  0  0
   62.1036   -6.6646   -9.1482 C   0  0  0  0  0  0  0  0  0  0  0  0
   62.3546   -8.0320   -9.4144 N   0  0  0  0  0  0  0  0  0  0  0  0
   62.2407   -8.5657  -10.6865 C   0  0  0  0  0  0  0  0  0  0  0  0
   62.7799   -7.6664  -11.7741 C   0  0  0  0  0  0  0  0  0  0  0  0
   65.1105   -5.9443  -10.5091 H   0  0  0  0  0  0  0  0  0  0  0  0
   64.7544   -3.7713  -14.3032 C   0  0  0  0  0  0  0  0  0  0  0  0
   63.5669   -4.4588  -14.4662 C   0  0  0  0  0  0  0  0  0  0  0  0
   63.0685   -5.2978  -13.4715 C   0  0  0  0  0  0  0  0  0  0  0  0
   63.7565   -5.4675  -12.2836 C   0  0  0  0  0  0  0  0  0  0  0  0
   64.9343   -4.7678  -12.1462 C   0  0  0  0  0  0  0  0  0  0  0  0
   65.4397   -3.9363  -13.1170 C   0  0  0  0  0  0  0  0  0  0  0  0
   65.2927   -2.9880  -15.4344 C   0  0  0  0  0  0  0  0  0  0  0  0
   62.9244   -2.2879  -15.4994 C   0  0  0  0  0  0  0  0  0  0  0  0
   64.3307   -1.8907  -15.8583 C   0  0  0  0  0  0  0  0  0  0  0  0
   62.9348   -8.7509   -8.3505 C   0  0  0  0  0  0  0  0  0  0  0  0
   62.0845   -8.7625   -7.0909 C   0  0  0  0  0  0  0  0  0  0  0  0
   61.2861   -9.8711   -6.7997 C   0  0  0  0  0  0  0  0  0  0  0  0
   60.4740   -9.8950   -5.6999 C   0  0  0  0  0  0  0  0  0  0  0  0
   60.4648   -8.7833   -4.8772 C   0  0  0  0  0  0  0  0  0  0  0  0
   61.2472   -7.7021   -5.1586 C   0  0  0  0  0  0  0  0  0  0  0  0
   62.0780   -7.6882   -6.2914 C   0  0  0  0  0  0  0  0  0  0  0  0
   63.2537  -10.1602   -8.5715 C   0  0  0  0  0  0  0  0  0  0  0  0
   64.0293  -10.8649   -7.6550 C   0  0  0  0  0  0  0  0  0  0  0  0
   64.2900  -12.1987   -7.7910 C   0  0  0  0  0  0  0  0  0  0  0  0
   63.7748  -12.9100   -8.8710 C   0  0  0  0  0  0  0  0  0  0  0  0
   63.0160  -12.2351   -9.7848 C   0  0  0  0  0  0  0  0  0  0  0  0
   62.7696  -10.8799   -9.6239 C   0  0  0  0  0  0  0  0  0  0  0  0
 16 17  1  0  0  0
 17 15  1  0  0  0
 15  9  1  0  0  0
  9 10  2  0  0  0
 10 11  1  0  0  0
 11 12  2  0  0  0
 12  1  1  0  0  0
  1  2  1  0  0  0
  1  3  1  0  0  0
  3  4  1  0  0  0
  4  5  1  0  0  0
  5 18  1  0  0  0
 18 19  1  0  0  0
 19 20  2  0  0  0
 20 21  1  0  0  0
 21 22  2  0  0  0
 22 23  1  0  0  0
 23 24  2  0  0  0
 18 25  1  0  0  0
 25 26  2  0  0  0
 26 27  1  0  0  0
 27 28  2  0  0  0
 28 29  1  0  0  0
 29 30  2  0  0  0
  5  6  1  0  0  0
  6  7  1  0  0  0
 12 13  1  0  0  0
 13 14  2  0  0  0
 14  9  1  0  0  0
  7  1  1  0  0  0
 24 19  1  0  0  0
 30 25  1  0  0  0
  2  8  1  0  0  0
M  END
> <minimizedAffinity>
-0.04433

> <CNNscore>
0.4322017729

> <CNNaffinity>
4.4269428253

> <CNN_VS>
1.9133325815

> <CNNaffinity_variance>
0.3982173502

$$$$
[H]OC1(c2c([H])c([H])c(C([H])([H])C([H])([H])C([H])([H])[H])c([H])c2[H])C([H])([H])C([H])([H])N(C([H])(c2c([H])c([H])c([H])c([H])c2[H])c2c([H])c([H])c([H])c([H])c2[H])C([H])([H])C1([H])[H]


 30 33  0  0  0  0  0  0  0  0999 V2000
   54.9551   -6.0569   -3.1185 C   0  0  0  0  0  0  0  0  0  0  0  0
   55.9419   -7.0660   -3.1782 O   0  0  0  0  0  0  0  0  0  0  0  0
   55.6480   -4.7578   -2.9630 C   0  0  0  0  0  0  0  0  0  0  0  0
   56.5787   -4.8597   -1.7854 C   0  0  0  0  0  0  0  0  0  0  0  0
   56.1787   -5.7997   -0.8055 N   0  0  0  0  0  0  0  0  0  0  0  0
   54.8535   -6.1588   -0.6298 C   0  0  0  0  0  0  0  0  0  0  0  0
   54.0921   -6.3273   -1.9237 C   0  0  0  0  0  0  0  0  0  0  0  0
   56.1614   -7.2609   -4.1246 H   0  0  0  0  0  0  0  0  0  0  0  0
   52.6810   -6.1181   -6.7523 C   0  0  0  0  0  0  0  0  0  0  0  0
   53.9656   -6.6262   -6.7224 C   0  0  0  0  0  0  0  0  0  0  0  0
   54.7180   -6.6355   -5.5495 C   0  0  0  0  0  0  0  0  0  0  0  0
   54.1944   -6.1303   -4.3730 C   0  0  0  0  0  0  0  0  0  0  0  0
   52.9113   -5.6342   -4.4306 C   0  0  0  0  0  0  0  0  0  0  0  0
   52.1557   -5.6176   -5.5787 C   0  0  0  0  0  0  0  0  0  0  0  0
   51.9737   -6.0276   -8.0465 C   0  0  0  0  0  0  0  0  0  0  0  0
   50.3800   -7.2493   -6.6077 C   0  0  0  0  0  0  0  0  0  0  0  0
   50.5740   -6.6122   -7.9570 C   0  0  0  0  0  0  0  0  0  0  0  0
   57.2321   -6.4977   -0.1824 C   0  0  0  0  0  0  0  0  0  0  0  0
   57.5408   -7.8366   -0.8318 C   0  0  0  0  0  0  0  0  0  0  0  0
   57.9144   -8.9251   -0.0400 C   0  0  0  0  0  0  0  0  0  0  0  0
   58.2440  -10.1302   -0.5955 C   0  0  0  0  0  0  0  0  0  0  0  0
   58.1969  -10.2431   -1.9731 C   0  0  0  0  0  0  0  0  0  0  0  0
   57.8283   -9.1820   -2.7466 C   0  0  0  0  0  0  0  0  0  0  0  0
   57.4915   -7.9481   -2.1654 C   0  0  0  0  0  0  0  0  0  0  0  0
   58.5344   -5.8389   -0.1005 C   0  0  0  0  0  0  0  0  0  0  0  0
   59.7063   -6.5879   -0.0390 C   0  0  0  0  0  0  0  0  0  0  0  0
   60.9438   -6.0096   -0.0321 C   0  0  0  0  0  0  0  0  0  0  0  0
   61.0739   -4.6249   -0.0906 C   0  0  0  0  0  0  0  0  0  0  0  0
   59.9353   -3.8718   -0.1454 C   0  0  0  0  0  0  0  0  0  0  0  0
   58.6915   -4.4851   -0.1479 C   0  0  0  0  0  0  0  0  0  0  0  0
 16 17  1  0  0  0
 17 15  1  0  0  0
 15  9  1  0  0  0
  9 10  2  0  0  0
 10 11  1  0  0  0
 11 12  2  0  0  0
 12  1  1  0  0  0
  1  2  1  0  0  0
  1  3  1  0  0  0
  3  4  1  0  0  0
  4  5  1  0  0  0
  5 18  1  0  0  0
 18 19  1  0  0  0
 19 20  2  0  0  0
 20 21  1  0  0  0
 21 22  2  0  0  0
 22 23  1  0  0  0
 23 24  2  0  0  0
 18 25  1  0  0  0
 25 26  2  0  0  0
 26 27  1  0  0  0
 27 28  2  0  0  0
 28 29  1  0  0  0
 29 30  2  0  0  0
  5  6  1  0  0  0
  6  7  1  0  0  0
 12 13  1  0  0  0
 13 14  2  0  0  0
 14  9  1  0  0  0
  7  1  1  0  0  0
 24 19  1  0  0  0
 30 25  1  0  0  0
  2  8  1  0  0  0
M  END
> <minimizedAffinity>
-0.09159

> <CNNscore>
0.2930457592

> <CNNaffinity>
5.4226551056

> <CNN_VS>
1.5890860558

> <CNNaffinity_variance>
1.0208284855

$$$$
[H]OC1(c2c([H])c([H])c(C([H])([H])C([H])([H])C([H])([H])[H])c([H])c2[H])C([H])([H])C([H])([H])N(C([H])(c2c([H])c([H])c([H])c([H])c2[H])c2c([H])c([H])c([H])c([H])c2[H])C([H])([H])C1([H])[H]


 30 33  0  0  0  0  0  0  0  0999 V2000
   55.2043   -5.4757   -6.9572 C   0  0  0  0  0  0  0  0  0  0  0  0
   54.7422   -4.1428   -6.8848 O   0  0  0  0  0  0  0  0  0  0  0  0
   54.1655   -6.2760   -7.6445 C   0  0  0  0  0  0  0  0  0  0  0  0
   52.8568   -6.0548   -6.9362 C   0  0  0  0  0  0  0  0  0  0  0  0
   52.9843   -5.7133   -5.5685 N   0  0  0  0  0  0  0  0  0  0  0  0
   54.0838   -6.0900   -4.8167 C   0  0  0  0  0  0  0  0  0  0  0  0
   55.3957   -5.9732   -5.5567 C   0  0  0  0  0  0  0  0  0  0  0  0
   55.0931   -3.6268   -7.6546 H   0  0  0  0  0  0  0  0  0  0  0  0
   58.9363   -5.5324   -9.0664 C   0  0  0  0  0  0  0  0  0  0  0  0
   57.7584   -5.2614   -9.7360 C   0  0  0  0  0  0  0  0  0  0  0  0
   56.5352   -5.2181   -9.0697 C   0  0  0  0  0  0  0  0  0  0  0  0
   56.4669   -5.4487   -7.7075 C   0  0  0  0  0  0  0  0  0  0  0  0
   57.6558   -5.7123   -7.0650 C   0  0  0  0  0  0  0  0  0  0  0  0
   58.8703   -5.7586   -7.7069 C   0  0  0  0  0  0  0  0  0  0  0  0
   60.1859   -5.6802   -9.8411 C   0  0  0  0  0  0  0  0  0  0  0  0
   61.9015   -7.4007   -9.3946 C   0  0  0  0  0  0  0  0  0  0  0  0
   60.5583   -7.1422  -10.0217 C   0  0  0  0  0  0  0  0  0  0  0  0
   52.0340   -4.7882   -5.0927 C   0  0  0  0  0  0  0  0  0  0  0  0
   51.0663   -4.3081   -6.1618 C   0  0  0  0  0  0  0  0  0  0  0  0
   51.0683   -2.9667   -6.5513 C   0  0  0  0  0  0  0  0  0  0  0  0
   50.1799   -2.4921   -7.4760 C   0  0  0  0  0  0  0  0  0  0  0  0
   49.2724   -3.3832   -8.0193 C   0  0  0  0  0  0  0  0  0  0  0  0
   49.2724   -4.6939   -7.6425 C   0  0  0  0  0  0  0  0  0  0  0  0
   50.1899   -5.1711   -6.6915 C   0  0  0  0  0  0  0  0  0  0  0  0
   51.1645   -5.2054   -3.9942 C   0  0  0  0  0  0  0  0  0  0  0  0
   51.7029   -5.7312   -2.8229 C   0  0  0  0  0  0  0  0  0  0  0  0
   50.9285   -6.0667   -1.7489 C   0  0  0  0  0  0  0  0  0  0  0  0
   49.5489   -5.8867   -1.7923 C   0  0  0  0  0  0  0  0  0  0  0  0
   49.0005   -5.3774   -2.9352 C   0  0  0  0  0  0  0  0  0  0  0  0
   49.8100   -5.0482   -4.0120 C   0  0  0  0  0  0  0  0  0  0  0  0
 16 17  1  0  0  0
 17 15  1  0  0  0
 15  9  1  0  0  0
  9 10  2  0  0  0
 10 11  1  0  0  0
 11 12  2  0  0  0
 12  1  1  0  0  0
  1  2  1  0  0  0
  1  3  1  0  0  0
  3  4  1  0  0  0
  4  5  1  0  0  0
  5 18  1  0  0  0
 18 19  1  0  0  0
 19 20  2  0  0  0
 20 21  1  0  0  0
 21 22  2  0  0  0
 22 23  1  0  0  0
 23 24  2  0  0  0
 18 25  1  0  0  0
 25 26  2  0  0  0
 26 27  1  0  0  0
 27 28  2  0  0  0
 28 29  1  0  0  0
 29 30  2  0  0  0
  5  6  1  0  0  0
  6  7  1  0  0  0
 12 13  1  0  0  0
 13 14  2  0  0  0
 14  9  1  0  0  0
  7  1  1  0  0  0
 24 19  1  0  0  0
 30 25  1  0  0  0
  2  8  1  0  0  0
M  END
> <minimizedAffinity>
-1.60672

> <CNNscore>
0.2874630690

> <CNNaffinity>
5.9941129684

> <CNN_VS>
1.7230861187

> <CNNaffinity_variance>
0.5103229284

$$$$
[H]OC1(c2c([H])c([H])c(C([H])([H])C([H])([H])C([H])([H])[H])c([H])c2[H])C([H])([H])C([H])([H])N(C([H])(c2c([H])c([H])c([H])c([H])c2[H])c2c([H])c([H])c([H])c([H])c2[H])C([H])([H])C1([H])[H]


 30 33  0  0  0  0  0  0  0  0999 V2000
   55.1113   -5.0318   -7.8217 C   0  0  0  0  0  0  0  0  0  0  0  0
   55.3242   -4.5378   -6.5155 O   0  0  0  0  0  0  0  0  0  0  0  0
   54.3157   -4.0250   -8.5601 C   0  0  0  0  0  0  0  0  0  0  0  0
   53.0870   -3.7113   -7.7505 C   0  0  0  0  0  0  0  0  0  0  0  0
   52.6620   -4.7633   -6.9042 N   0  0  0  0  0  0  0  0  0  0  0  0
   52.9467   -6.0894   -7.1808 C   0  0  0  0  0  0  0  0  0  0  0  0
   54.3440   -6.3141   -7.7095 C   0  0  0  0  0  0  0  0  0  0  0  0
   56.1952   -4.0671   -6.4758 H   0  0  0  0  0  0  0  0  0  0  0  0
   58.9578   -5.4902   -9.6588 C   0  0  0  0  0  0  0  0  0  0  0  0
   58.7974   -5.7173   -8.3053 C   0  0  0  0  0  0  0  0  0  0  0  0
   57.5540   -5.5938   -7.6883 C   0  0  0  0  0  0  0  0  0  0  0  0
   56.4368   -5.2360   -8.4212 C   0  0  0  0  0  0  0  0  0  0  0  0
   56.6244   -5.0197   -9.7679 C   0  0  0  0  0  0  0  0  0  0  0  0
   57.8434   -5.1373  -10.3920 C   0  0  0  0  0  0  0  0  0  0  0  0
   60.3172   -5.5221  -10.2370 C   0  0  0  0  0  0  0  0  0  0  0  0
   62.3456   -6.3228   -9.0764 C   0  0  0  0  0  0  0  0  0  0  0  0
   61.0865   -6.7504   -9.7807 C   0  0  0  0  0  0  0  0  0  0  0  0
   52.1295   -4.3550   -5.6653 C   0  0  0  0  0  0  0  0  0  0  0  0
   50.7390   -3.7507   -5.7718 C   0  0  0  0  0  0  0  0  0  0  0  0
   49.9788   -3.5451   -4.6181 C   0  0  0  0  0  0  0  0  0  0  0  0
   48.7070   -3.0471   -4.6825 C   0  0  0  0  0  0  0  0  0  0  0  0
   48.1899   -2.7501   -5.9305 C   0  0  0  0  0  0  0  0  0  0  0  0
   48.9331   -2.9468   -7.0570 C   0  0  0  0  0  0  0  0  0  0  0  0
   50.2390   -3.4589   -6.9794 C   0  0  0  0  0  0  0  0  0  0  0  0
   51.9948   -5.3618   -4.6141 C   0  0  0  0  0  0  0  0  0  0  0  0
   53.0832   -5.7064   -3.8173 C   0  0  0  0  0  0  0  0  0  0  0  0
   52.9797   -6.5902   -2.7811 C   0  0  0  0  0  0  0  0  0  0  0  0
   51.7565   -7.1836   -2.4816 C   0  0  0  0  0  0  0  0  0  0  0  0
   50.6775   -6.8630   -3.2558 C   0  0  0  0  0  0  0  0  0  0  0  0
   50.8116   -5.9648   -4.3038 C   0  0  0  0  0  0  0  0  0  0  0  0
 16 17  1  0  0  0
 17 15  1  0  0  0
 15  9  1  0  0  0
  9 10  2  0  0  0
 10 11  1  0  0  0
 11 12  2  0  0  0
 12  1  1  0  0  0
  1  2  1  0  0  0
  1  3  1  0  0  0
  3  4  1  0  0  0
  4  5  1  0  0  0
  5 18  1  0  0  0
 18 19  1  0  0  0
 19 20  2  0  0  0
 20 21  1  0  0  0
 21 22  2  0  0  0
 22 23  1  0  0  0
 23 24  2  0  0  0
 18 25  1  0  0  0
 25 26  2  0  0  0
 26 27  1  0  0  0
 27 28  2  0  0  0
 28 29  1  0  0  0
 29 30  2  0  0  0
  5  6  1  0  0  0
  6  7  1  0  0  0
 12 13  1  0  0  0
 13 14  2  0  0  0
 14  9  1  0  0  0
  7  1  1  0  0  0
 24 19  1  0  0  0
 30 25  1  0  0  0
  2  8  1  0  0  0
M  END
> <minimizedAffinity>
-5.68681

> <CNNscore>
0.2646894753

> <CNNaffinity>
6.0272455215

> <CNN_VS>
1.5953484774

> <CNNaffinity_variance>
0.3278259337

$$$$
[H]OC1(c2c([H])c([H])c(C([H])([H])C([H])([H])C([H])([H])[H])c([H])c2[H])C([H])([H])C([H])([H])N(C([H])(c2c([H])c([H])c([H])c([H])c2[H])c2c([H])c([H])c([H])c([H])c2[H])C([H])([H])C1([H])[H]


 30 33  0  0  0  0  0  0  0  0999 V2000
   54.4227   -4.2210   -8.0985 C   0  0  0  0  0  0  0  0  0  0  0  0
   54.2501   -5.0410   -9.2357 O   0  0  0  0  0  0  0  0  0  0  0  0
   55.1733   -3.0168   -8.5210 C   0  0  0  0  0  0  0  0  0  0  0  0
   56.4256   -3.4661   -9.2232 C   0  0  0  0  0  0  0  0  0  0  0  0
   56.8995   -4.7359   -8.8151 N   0  0  0  0  0  0  0  0  0  0  0  0
   56.6271   -5.2531   -7.5603 C   0  0  0  0  0  0  0  0  0  0  0  0
   55.2151   -4.9947   -7.0892 C   0  0  0  0  0  0  0  0  0  0  0  0
   53.3733   -4.8479   -9.6551 H   0  0  0  0  0  0  0  0  0  0  0  0
   50.4542   -3.2316   -6.8129 C   0  0  0  0  0  0  0  0  0  0  0  0
   51.1356   -4.2842   -6.2325 C   0  0  0  0  0  0  0  0  0  0  0  0
   52.4332   -4.6136   -6.6192 C   0  0  0  0  0  0  0  0  0  0  0  0
   53.0795   -3.8894   -7.6047 C   0  0  0  0  0  0  0  0  0  0  0  0
   52.3790   -2.8438   -8.1630 C   0  0  0  0  0  0  0  0  0  0  0  0
   51.0991   -2.5056   -7.7932 C   0  0  0  0  0  0  0  0  0  0  0  0
   49.0415   -3.0006   -6.4468 C   0  0  0  0  0  0  0  0  0  0  0  0
   47.4290   -2.7153   -4.5972 C   0  0  0  0  0  0  0  0  0  0  0  0
   48.8895   -2.7332   -4.9588 C   0  0  0  0  0  0  0  0  0  0  0  0
   57.4706   -5.5176   -9.8387 C   0  0  0  0  0  0  0  0  0  0  0  0
   57.5861   -4.7879  -11.1669 C   0  0  0  0  0  0  0  0  0  0  0  0
   56.4535   -4.6113  -11.9652 C   0  0  0  0  0  0  0  0  0  0  0  0
   56.5308   -4.0010  -13.1863 C   0  0  0  0  0  0  0  0  0  0  0  0
   57.7703   -3.5597  -13.6127 C   0  0  0  0  0  0  0  0  0  0  0  0
   58.8759   -3.7282  -12.8320 C   0  0  0  0  0  0  0  0  0  0  0  0
   58.7851   -4.3566  -11.5788 C   0  0  0  0  0  0  0  0  0  0  0  0
   58.8104   -6.0592   -9.6184 C   0  0  0  0  0  0  0  0  0  0  0  0
   59.6578   -5.4933   -8.6698 C   0  0  0  0  0  0  0  0  0  0  0  0
   60.8886   -6.0135   -8.3864 C   0  0  0  0  0  0  0  0  0  0  0  0
   61.3415   -7.1509   -9.0489 C   0  0  0  0  0  0  0  0  0  0  0  0
   60.5270   -7.7177   -9.9878 C   0  0  0  0  0  0  0  0  0  0  0  0
   59.2833   -7.1669  -10.2580 C   0  0  0  0  0  0  0  0  0  0  0  0
 16 17  1  0  0  0
 17 15  1  0  0  0
 15  9  1  0  0  0
  9 10  2  0  0  0
 10 11  1  0  0  0
 11 12  2  0  0  0
 12  1  1  0  0  0
  1  2  1  0  0  0
  1  3  1  0  0  0
  3  4  1  0  0  0
  4  5  1  0  0  0
  5 18  1  0  0  0
 18 19  1  0  0  0
 19 20  2  0  0  0
 20 21  1  0  0  0
 21 22  2  0  0  0
 22 23  1  0  0  0
 23 24  2  0  0  0
 18 25  1  0  0  0
 25 26  2  0  0  0
 26 27  1  0  0  0
 27 28  2  0  0  0
 28 29  1  0  0  0
 29 30  2  0  0  0
  5  6  1  0  0  0
  6  7  1  0  0  0
 12 13  1  0  0  0
 13 14  2  0  0  0
 14  9  1  0  0  0
  7  1  1  0  0  0
 24 19  1  0  0  0
 30 25  1  0  0  0
  2  8  1  0  0  0
M  END
> <minimizedAffinity>
-7.70883

> <CNNscore>
0.1773211807

> <CNNaffinity>
5.8618559837

> <CNN_VS>
1.0394312143

> <CNNaffinity_variance>
0.0615085550

$$$$
[H]OC1(c2c([H])c([H])c(C([H])([H])C([H])([H])C([H])([H])[H])c([H])c2[H])C([H])([H])C([H])([H])N(C([H])(c2c([H])c([H])c([H])c([H])c2[H])c2c([H])c([H])c([H])c([H])c2[H])C([H])([H])C1([H])[H]


 30 33  0  0  0  0  0  0  0  0999 V2000
   55.3794   -5.9337   -6.8187 C   0  0  0  0  0  0  0  0  0  0  0  0
   54.9550   -4.8908   -5.9657 O   0  0  0  0  0  0  0  0  0  0  0  0
   54.2177   -6.8192   -7.0601 C   0  0  0  0  0  0  0  0  0  0  0  0
   53.6532   -7.2277   -5.7268 C   0  0  0  0  0  0  0  0  0  0  0  0
   54.5960   -7.2326   -4.6710 N   0  0  0  0  0  0  0  0  0  0  0  0
   55.9497   -7.4143   -4.8959 C   0  0  0  0  0  0  0  0  0  0  0  0
   56.4664   -6.6891   -6.1164 C   0  0  0  0  0  0  0  0  0  0  0  0
   54.6840   -4.1070   -6.5080 H   0  0  0  0  0  0  0  0  0  0  0  0
   56.6858   -3.9648  -10.3960 C   0  0  0  0  0  0  0  0  0  0  0  0
   57.5931   -4.6248   -9.5895 C   0  0  0  0  0  0  0  0  0  0  0  0
   57.1907   -5.2886   -8.4322 C   0  0  0  0  0  0  0  0  0  0  0  0
   55.8598   -5.3035   -8.0556 C   0  0  0  0  0  0  0  0  0  0  0  0
   54.9771   -4.6415   -8.8792 C   0  0  0  0  0  0  0  0  0  0  0  0
   55.3572   -3.9822  -10.0239 C   0  0  0  0  0  0  0  0  0  0  0  0
   57.1830   -3.1815  -11.5459 C   0  0  0  0  0  0  0  0  0  0  0  0
   56.7325   -4.7369  -13.4116 C   0  0  0  0  0  0  0  0  0  0  0  0
   56.3427   -3.4238  -12.7885 C   0  0  0  0  0  0  0  0  0  0  0  0
   54.0936   -6.8243   -3.4197 C   0  0  0  0  0  0  0  0  0  0  0  0
   55.0778   -5.9942   -2.6121 C   0  0  0  0  0  0  0  0  0  0  0  0
   55.6031   -4.8174   -3.1511 C   0  0  0  0  0  0  0  0  0  0  0  0
   56.5256   -4.0720   -2.4707 C   0  0  0  0  0  0  0  0  0  0  0  0
   56.9274   -4.5182   -1.2248 C   0  0  0  0  0  0  0  0  0  0  0  0
   56.4119   -5.6649   -0.6961 C   0  0  0  0  0  0  0  0  0  0  0  0
   55.4643   -6.4232   -1.4038 C   0  0  0  0  0  0  0  0  0  0  0  0
   52.8669   -6.0295   -3.4020 C   0  0  0  0  0  0  0  0  0  0  0  0
   52.2893   -5.5886   -4.5895 C   0  0  0  0  0  0  0  0  0  0  0  0
   51.1076   -4.9043   -4.6175 C   0  0  0  0  0  0  0  0  0  0  0  0
   50.4287   -4.6235   -3.4351 C   0  0  0  0  0  0  0  0  0  0  0  0
   50.9822   -5.0425   -2.2585 C   0  0  0  0  0  0  0  0  0  0  0  0
   52.1850   -5.7328   -2.2589 C   0  0  0  0  0  0  0  0  0  0  0  0
 16 17  1  0  0  0
 17 15  1  0  0  0
 15  9  1  0  0  0
  9 10  2  0  0  0
 10 11  1  0  0  0
 11 12  2  0  0  0
 12  1  1  0  0  0
  1  2  1  0  0  0
  1  3  1  0  0  0
  3  4  1  0  0  0
  4  5  1  0  0  0
  5 18  1  0  0  0
 18 19  1  0  0  0
 19 20  2  0  0  0
 20 21  1  0  0  0
 21 22  2  0  0  0
 22 23  1  0  0  0
 23 24  2  0  0  0
 18 25  1  0  0  0
 25 26  2  0  0  0
 26 27  1  0  0  0
 27 28  2  0  0  0
 28 29  1  0  0  0
 29 30  2  0  0  0
  5  6  1  0  0  0
  6  7  1  0  0  0
 12 13  1  0  0  0
 13 14  2  0  0  0
 14  9  1  0  0  0
  7  1  1  0  0  0
 24 19  1  0  0  0
 30 25  1  0  0  0
  2  8  1  0  0  0
M  END
> <minimizedAffinity>
-6.59265

> <CNNscore>
0.1449312866

> <CNNaffinity>
5.5909504890

> <CNN_VS>
0.8103036284

> <CNNaffinity_variance>
0.3624985814

$$$$
[H]OC1(c2c([H])c([H])c(C([H])([H])C([H])([H])C([H])([H])[H])c([H])c2[H])C([H])([H])C([H])([H])N(C([H])(c2c([H])c([H])c([H])c([H])c2[H])c2c([H])c([H])c([H])c([H])c2[H])C([H])([H])C1([H])[H]


 30 33  0  0  0  0  0  0  0  0999 V2000
   56.6131   -4.1800  -11.1758 C   0  0  0  0  0  0  0  0  0  0  0  0
   56.7179   -2.8115  -11.5095 O   0  0  0  0  0  0  0  0  0  0  0  0
   57.9498   -4.6403  -10.7361 C   0  0  0  0  0  0  0  0  0  0  0  0
   58.9453   -4.2826  -11.8058 C   0  0  0  0  0  0  0  0  0  0  0  0
   58.3965   -4.1961  -13.1077 N   0  0  0  0  0  0  0  0  0  0  0  0
   57.2604   -4.8967  -13.4740 C   0  0  0  0  0  0  0  0  0  0  0  0
   56.1913   -4.9229  -12.4069 C   0  0  0  0  0  0  0  0  0  0  0  0
   56.4653   -2.2581  -10.7273 H   0  0  0  0  0  0  0  0  0  0  0  0
   53.7863   -4.3720   -7.9582 C   0  0  0  0  0  0  0  0  0  0  0  0
   53.3517   -4.2812   -9.2667 C   0  0  0  0  0  0  0  0  0  0  0  0
   54.2501   -4.2369  -10.3311 C   0  0  0  0  0  0  0  0  0  0  0  0
   55.6138   -4.2819  -10.1039 C   0  0  0  0  0  0  0  0  0  0  0  0
   56.0187   -4.3762   -8.7913 C   0  0  0  0  0  0  0  0  0  0  0  0
   55.1462   -4.4210   -7.7302 C   0  0  0  0  0  0  0  0  0  0  0  0
   52.7952   -4.2984   -6.8649 C   0  0  0  0  0  0  0  0  0  0  0  0
   51.6023   -2.3713   -7.8480 C   0  0  0  0  0  0  0  0  0  0  0  0
   51.4537   -3.7884   -7.3642 C   0  0  0  0  0  0  0  0  0  0  0  0
   58.9514   -3.1907  -13.9241 C   0  0  0  0  0  0  0  0  0  0  0  0
   60.3750   -3.4855  -14.3671 C   0  0  0  0  0  0  0  0  0  0  0  0
   60.6040   -4.2987  -15.4796 C   0  0  0  0  0  0  0  0  0  0  0  0
   61.8718   -4.6217  -15.8769 C   0  0  0  0  0  0  0  0  0  0  0  0
   62.9293   -4.1174  -15.1419 C   0  0  0  0  0  0  0  0  0  0  0  0
   62.7066   -3.3201  -14.0580 C   0  0  0  0  0  0  0  0  0  0  0  0
   61.3997   -2.9943  -13.6585 C   0  0  0  0  0  0  0  0  0  0  0  0
   58.2582   -2.8604  -15.1680 C   0  0  0  0  0  0  0  0  0  0  0  0
   58.9208   -2.1926  -16.1943 C   0  0  0  0  0  0  0  0  0  0  0  0
   58.3284   -1.9287  -17.3964 C   0  0  0  0  0  0  0  0  0  0  0  0
   57.0178   -2.3306  -17.6385 C   0  0  0  0  0  0  0  0  0  0  0  0
   56.3484   -2.9822  -16.6417 C   0  0  0  0  0  0  0  0  0  0  0  0
   56.9731   -3.2343  -15.4295 C   0  0  0  0  0  0  0  0  0  0  0  0
 16 17  1  0  0  0
 17 15  1  0  0  0
 15  9  1  0  0  0
  9 10  2  0  0  0
 10 11  1  0  0  0
 11 12  2  0  0  0
 12  1  1  0  0  0
  1  2  1  0  0  0
  1  3  1  0  0  0
  3  4  1  0  0  0
  4  5  1  0  0  0
  5 18  1  0  0  0
 18 19  1  0  0  0
 19 20  2  0  0  0
 20 21  1  0  0  0
 21 22  2  0  0  0
 22 23  1  0  0  0
 23 24  2  0  0  0
 18 25  1  0  0  0
 25 26  2  0  0  0
 26 27  1  0  0  0
 27 28  2  0  0  0
 28 29  1  0  0  0
 29 30  2  0  0  0
  5  6  1  0  0  0
  6  7  1  0  0  0
 12 13  1  0  0  0
 13 14  2  0  0  0
 14  9  1  0  0  0
  7  1  1  0  0  0
 24 19  1  0  0  0
 30 25  1  0  0  0
  2  8  1  0  0  0
M  END
> <minimizedAffinity>
-5.29331

> <CNNscore>
0.1440913826

> <CNNaffinity>
5.6099138260

> <CNN_VS>
0.8083402514

> <CNNaffinity_variance>
0.0951072723

$$$$
[H]OC1(c2c([H])c([H])c(C([H])([H])C([H])([H])C([H])([H])[H])c([H])c2[H])C([H])([H])C([H])([H])N(C([H])(c2c([H])c([H])c([H])c([H])c2[H])c2c([H])c([H])c([H])c([H])c2[H])C([H])([H])C1([H])[H]


 30 33  0  0  0  0  0  0  0  0999 V2000
   55.8490   -5.0663   -7.3721 C   0  0  0  0  0  0  0  0  0  0  0  0
   56.5883   -6.1810   -6.9179 O   0  0  0  0  0  0  0  0  0  0  0  0
   56.1119   -3.9429   -6.4444 C   0  0  0  0  0  0  0  0  0  0  0  0
   55.8279   -4.4136   -5.0441 C   0  0  0  0  0  0  0  0  0  0  0  0
   54.8746   -5.4566   -4.9614 N   0  0  0  0  0  0  0  0  0  0  0  0
   53.8999   -5.6391   -5.9272 C   0  0  0  0  0  0  0  0  0  0  0  0
   54.3964   -5.4330   -7.3391 C   0  0  0  0  0  0  0  0  0  0  0  0
   57.4592   -6.2169   -7.3891 H   0  0  0  0  0  0  0  0  0  0  0  0
   57.2620   -4.3698  -11.3594 C   0  0  0  0  0  0  0  0  0  0  0  0
   55.9958   -3.9625  -10.9848 C   0  0  0  0  0  0  0  0  0  0  0  0
   55.5207   -4.1600   -9.6897 C   0  0  0  0  0  0  0  0  0  0  0  0
   56.3109   -4.7759   -8.7360 C   0  0  0  0  0  0  0  0  0  0  0  0
   57.5689   -5.1678   -9.1353 C   0  0  0  0  0  0  0  0  0  0  0  0
   58.0530   -4.9806  -10.4081 C   0  0  0  0  0  0  0  0  0  0  0  0
   57.6697   -4.2400  -12.7737 C   0  0  0  0  0  0  0  0  0  0  0  0
   56.0884   -5.0473  -14.4915 C   0  0  0  0  0  0  0  0  0  0  0  0
   56.4939   -3.8615  -13.6586 C   0  0  0  0  0  0  0  0  0  0  0  0
   55.1225   -6.4143   -3.9582 C   0  0  0  0  0  0  0  0  0  0  0  0
   56.3664   -6.1229   -3.1351 C   0  0  0  0  0  0  0  0  0  0  0  0
   56.3633   -5.0699   -2.2172 C   0  0  0  0  0  0  0  0  0  0  0  0
   57.4796   -4.7513   -1.4947 C   0  0  0  0  0  0  0  0  0  0  0  0
   58.6206   -5.5059   -1.6989 C   0  0  0  0  0  0  0  0  0  0  0  0
   58.6232   -6.5367   -2.5920 C   0  0  0  0  0  0  0  0  0  0  0  0
   57.4704   -6.8556   -3.3290 C   0  0  0  0  0  0  0  0  0  0  0  0
   54.0828   -6.6385   -2.9554 C   0  0  0  0  0  0  0  0  0  0  0  0
   53.1229   -5.6636   -2.6976 C   0  0  0  0  0  0  0  0  0  0  0  0
   52.0959   -5.8634   -1.8195 C   0  0  0  0  0  0  0  0  0  0  0  0
   51.9731   -7.0742   -1.1437 C   0  0  0  0  0  0  0  0  0  0  0  0
   52.9086   -8.0416   -1.3785 C   0  0  0  0  0  0  0  0  0  0  0  0
   53.9430   -7.8109   -2.2731 C   0  0  0  0  0  0  0  0  0  0  0  0
 16 17  1  0  0  0
 17 15  1  0  0  0
 15  9  1  0  0  0
  9 10  2  0  0  0
 10 11  1  0  0  0
 11 12  2  0  0  0
 12  1  1  0  0  0
  1  2  1  0  0  0
  1  3  1  0  0  0
  3  4  1  0  0  0
  4  5  1  0  0  0
  5 18  1  0  0  0
 18 19  1  0  0  0
 19 20  2  0  0  0
 20 21  1  0  0  0
 21 22  2  0  0  0
 22 23  1  0  0  0
 23 24  2  0  0  0
 18 25  1  0  0  0
 25 26  2  0  0  0
 26 27  1  0  0  0
 27 28  2  0  0  0
 28 29  1  0  0  0
 29 30  2  0  0  0
  5  6  1  0  0  0
  6  7  1  0  0  0
 12 13  1  0  0  0
 13 14  2  0  0  0
 14  9  1  0  0  0
  7  1  1  0  0  0
 24 19  1  0  0  0
 30 25  1  0  0  0
  2  8  1  0  0  0
M  END
> <minimizedAffinity>
-8.83955

> <CNNscore>
0.1151174307

> <CNNaffinity>
5.4818186760

> <CNN_VS>
0.6310528517

> <CNNaffinity_variance>
0.3186748326

$$$$
[H]N=C(c1c([H])c([H])c([H])c(Oc2nc(Oc3c([H])c([H])c([H])c(N([H])C(=O)C([H])([H])[H])c3[H])c(F)c(C([H])([H])[H])c2F)c1[H])N([H])[H]


 34 36  0  0  0  0  0  0  0  0999 V2000
   55.9517   -4.5114  -11.1815 C   0  0  0  0  0  0  0  0  0  0  0  0
   54.9418   -3.7006  -10.7833 N   0  0  0  0  0  0  0  0  0  0  0  0
   54.7939   -3.2259   -9.5441 C   0  0  0  0  0  0  0  0  0  0  0  0
   55.7270   -3.5763   -8.5902 C   0  0  0  0  0  0  0  0  0  0  0  0
   55.5941   -3.1015   -7.3177 F   0  0  0  0  0  0  0  0  0  0  0  0
   56.7829   -4.3964   -8.9149 C   0  0  0  0  0  0  0  0  0  0  0  0
   57.7991   -4.7870   -7.9062 C   0  0  0  0  0  0  0  0  0  0  0  0
   56.8716   -4.8484  -10.2126 C   0  0  0  0  0  0  0  0  0  0  0  0
   57.9373   -5.6600  -10.4846 F   0  0  0  0  0  0  0  0  0  0  0  0
   56.0374   -4.9572  -12.4653 O   0  0  0  0  0  0  0  0  0  0  0  0
   58.6555   -3.2624  -14.3998 C   0  0  0  0  0  0  0  0  0  0  0  0
   57.9441   -3.0504  -15.5550 C   0  0  0  0  0  0  0  0  0  0  0  0
   56.6317   -3.4426  -15.7283 C   0  0  0  0  0  0  0  0  0  0  0  0
   55.9752   -4.0781  -14.7177 C   0  0  0  0  0  0  0  0  0  0  0  0
   56.6330   -4.3198  -13.5360 C   0  0  0  0  0  0  0  0  0  0  0  0
   57.9356   -3.9190  -13.3926 C   0  0  0  0  0  0  0  0  0  0  0  0
   62.4923   -2.8341  -14.2589 C   0  0  0  0  0  0  0  0  0  0  0  0
   61.1681   -3.4214  -14.6476 C   0  0  0  0  0  0  0  0  0  0  0  0
   61.2109   -4.3993  -15.4029 O   0  0  0  0  0  0  0  0  0  0  0  0
   59.9918   -2.8689  -14.1653 N   0  0  0  0  0  0  0  0  0  0  0  0
   60.0793   -2.0142  -13.5085 H   0  0  0  0  0  0  0  0  0  0  0  0
   53.7163   -2.3961   -9.2363 O   0  0  0  0  0  0  0  0  0  0  0  0
   52.6765   -2.8053   -8.4242 C   0  0  0  0  0  0  0  0  0  0  0  0
   51.5001   -2.0833   -8.2752 C   0  0  0  0  0  0  0  0  0  0  0  0
   50.4945   -2.5325   -7.4555 C   0  0  0  0  0  0  0  0  0  0  0  0
   50.6296   -3.7311   -6.7480 C   0  0  0  0  0  0  0  0  0  0  0  0
   51.7752   -4.4586   -6.8771 C   0  0  0  0  0  0  0  0  0  0  0  0
   52.7913   -3.9749   -7.7247 C   0  0  0  0  0  0  0  0  0  0  0  0
   51.9752   -5.7132   -6.1679 C   0  0  0  0  0  0  0  0  0  0  0  0
   51.1078   -6.1742   -5.3707 N   0  0  0  0  0  0  0  0  0  0  0  0
   53.1721   -6.4431   -6.3724 N   0  0  0  0  0  0  0  0  0  0  0  0
   50.2234   -5.7092   -5.1711 H   0  0  0  0  0  0  0  0  0  0  0  0
   53.7656   -6.6620   -5.5557 H   0  0  0  0  0  0  0  0  0  0  0  0
   53.4352   -6.7447   -7.3250 H   0  0  0  0  0  0  0  0  0  0  0  0
 17 18  1  0  0  0
 18 19  2  0  0  0
 18 20  1  0  0  0
 20 11  1  0  0  0
 11 12  2  0  0  0
 12 13  1  0  0  0
 13 14  2  0  0  0
 14 15  1  0  0  0
 15 10  1  0  0  0
 10  1  1  0  0  0
  1  2  2  0  0  0
  2  3  1  0  0  0
  3 22  1  0  0  0
 22 23  1  0  0  0
 23 24  2  0  0  0
 24 25  1  0  0  0
 25 26  2  0  0  0
 26 27  1  0  0  0
 27 29  1  0  0  0
 29 30  2  0  0  0
 29 31  1  0  0  0
 27 28  2  0  0  0
  3  4  2  0  0  0
  4  5  1  0  0  0
  4  6  1  0  0  0
  6  7  1  0  0  0
  6  8  2  0  0  0
  8  9  1  0  0  0
 15 16  2  0  0  0
 16 11  1  0  0  0
  8  1  1  0  0  0
 28 23  1  0  0  0
 20 21  1  0  0  0
 30 32  1  0  0  0
 31 33  1  0  0  0
 31 34  1  0  0  0
M  END
> <minimizedAffinity>
-8.78288

> <CNNscore>
0.4812305570

> <CNNaffinity>
6.7686681747

> <CNN_VS>
3.2572898865

> <CNNaffinity_variance>
0.1639567316

$$$$
[H]N=C(c1c([H])c([H])c([H])c(Oc2nc(Oc3c([H])c([H])c([H])c(N([H])C(=O)C([H])([H])[H])c3[H])c(F)c(C([H])([H])[H])c2F)c1[H])N([H])[H]


 34 36  0  0  0  0  0  0  0  0999 V2000
   53.0477   -3.8530   -8.2637 C   0  0  0  0  0  0  0  0  0  0  0  0
   53.4012   -4.8717   -7.4430 N   0  0  0  0  0  0  0  0  0  0  0  0
   52.7029   -5.2613   -6.3737 C   0  0  0  0  0  0  0  0  0  0  0  0
   51.5368   -4.5897   -6.0696 C   0  0  0  0  0  0  0  0  0  0  0  0
   50.8083   -4.9725   -4.9810 F   0  0  0  0  0  0  0  0  0  0  0  0
   51.1091   -3.5434   -6.8540 C   0  0  0  0  0  0  0  0  0  0  0  0
   49.8583   -2.8059   -6.5470 C   0  0  0  0  0  0  0  0  0  0  0  0
   51.8800   -3.1966   -7.9410 C   0  0  0  0  0  0  0  0  0  0  0  0
   51.4132   -2.1513   -8.6878 F   0  0  0  0  0  0  0  0  0  0  0  0
   53.8117   -3.5118   -9.3381 O   0  0  0  0  0  0  0  0  0  0  0  0
   56.9565   -3.8670  -11.1963 C   0  0  0  0  0  0  0  0  0  0  0  0
   57.6553   -4.5982  -10.2675 C   0  0  0  0  0  0  0  0  0  0  0  0
   57.1351   -4.9831   -9.0479 C   0  0  0  0  0  0  0  0  0  0  0  0
   55.8608   -4.6350   -8.7143 C   0  0  0  0  0  0  0  0  0  0  0  0
   55.1098   -3.9027   -9.6016 C   0  0  0  0  0  0  0  0  0  0  0  0
   55.6525   -3.5350  -10.8050 C   0  0  0  0  0  0  0  0  0  0  0  0
   57.8141   -3.4079  -14.9351 C   0  0  0  0  0  0  0  0  0  0  0  0
   57.1886   -4.0088  -13.7114 C   0  0  0  0  0  0  0  0  0  0  0  0
   56.4650   -4.9930  -13.9017 O   0  0  0  0  0  0  0  0  0  0  0  0
   57.4348   -3.4612  -12.4620 N   0  0  0  0  0  0  0  0  0  0  0  0
   58.0875   -2.6000  -12.4190 H   0  0  0  0  0  0  0  0  0  0  0  0
   53.1544   -6.3243   -5.5922 O   0  0  0  0  0  0  0  0  0  0  0  0
   54.0528   -6.1515   -4.5572 C   0  0  0  0  0  0  0  0  0  0  0  0
   55.4142   -6.3912   -4.6856 C   0  0  0  0  0  0  0  0  0  0  0  0
   56.2676   -6.2042   -3.6265 C   0  0  0  0  0  0  0  0  0  0  0  0
   55.7864   -5.7669   -2.3885 C   0  0  0  0  0  0  0  0  0  0  0  0
   54.4535   -5.5245   -2.2365 C   0  0  0  0  0  0  0  0  0  0  0  0
   53.6000   -5.7244   -3.3395 C   0  0  0  0  0  0  0  0  0  0  0  0
   53.8925   -5.0676   -0.9742 C   0  0  0  0  0  0  0  0  0  0  0  0
   54.6255   -4.6556   -0.0290 N   0  0  0  0  0  0  0  0  0  0  0  0
   52.4875   -5.0819   -0.7933 N   0  0  0  0  0  0  0  0  0  0  0  0
   55.6422   -4.6148   -0.0820 H   0  0  0  0  0  0  0  0  0  0  0  0
   52.0943   -5.6189   -0.0033 H   0  0  0  0  0  0  0  0  0  0  0  0
   51.8787   -4.5612   -1.4460 H   0  0  0  0  0  0  0  0  0  0  0  0
 17 18  1  0  0  0
 18 19  2  0  0  0
 18 20  1  0  0  0
 20 11  1  0  0  0
 11 12  2  0  0  0
 12 13  1  0  0  0
 13 14  2  0  0  0
 14 15  1  0  0  0
 15 10  1  0  0  0
 10  1  1  0  0  0
  1  2  2  0  0  0
  2  3  1  0  0  0
  3 22  1  0  0  0
 22 23  1  0  0  0
 23 24  2  0  0  0
 24 25  1  0  0  0
 25 26  2  0  0  0
 26 27  1  0  0  0
 27 29  1  0  0  0
 29 30  2  0  0  0
 29 31  1  0  0  0
 27 28  2  0  0  0
  3  4  2  0  0  0
  4  5  1  0  0  0
  4  6  1  0  0  0
  6  7  1  0  0  0
  6  8  2  0  0  0
  8  9  1  0  0  0
 15 16  2  0  0  0
 16 11  1  0  0  0
  8  1  1  0  0  0
 28 23  1  0  0  0
 20 21  1  0  0  0
 30 32  1  0  0  0
 31 33  1  0  0  0
 31 34  1  0  0  0
M  END
> <minimizedAffinity>
-10.38555

> <CNNscore>
0.4626826942

> <CNNaffinity>
7.1382155418

> <CNN_VS>
3.3027288914

> <CNNaffinity_variance>
0.1382834166

$$$$
[H]N=C(c1c([H])c([H])c([H])c(Oc2nc(Oc3c([H])c([H])c([H])c(N([H])C(=O)C([H])([H])[H])c3[H])c(F)c(C([H])([H])[H])c2F)c1[H])N([H])[H]


 34 36  0  0  0  0  0  0  0  0999 V2000
   53.7928   -3.6694   -8.0333 C   0  0  0  0  0  0  0  0  0  0  0  0
   53.9531   -4.8186   -7.3335 N   0  0  0  0  0  0  0  0  0  0  0  0
   52.9928   -5.4132   -6.6215 C   0  0  0  0  0  0  0  0  0  0  0  0
   51.7435   -4.8291   -6.5858 C   0  0  0  0  0  0  0  0  0  0  0  0
   50.7481   -5.4211   -5.8640 F   0  0  0  0  0  0  0  0  0  0  0  0
   51.4996   -3.6606   -7.2701 C   0  0  0  0  0  0  0  0  0  0  0  0
   50.1641   -3.0136   -7.2467 C   0  0  0  0  0  0  0  0  0  0  0  0
   52.5374   -3.1036   -7.9833 C   0  0  0  0  0  0  0  0  0  0  0  0
   52.2449   -1.9438   -8.6449 F   0  0  0  0  0  0  0  0  0  0  0  0
   54.8206   -3.1203   -8.7379 O   0  0  0  0  0  0  0  0  0  0  0  0
   57.8032   -5.1088   -9.5247 C   0  0  0  0  0  0  0  0  0  0  0  0
   57.6766   -5.1255  -10.8919 C   0  0  0  0  0  0  0  0  0  0  0  0
   56.6466   -4.5075  -11.5726 C   0  0  0  0  0  0  0  0  0  0  0  0
   55.6847   -3.8349  -10.8809 C   0  0  0  0  0  0  0  0  0  0  0  0
   55.7553   -3.7819   -9.5099 C   0  0  0  0  0  0  0  0  0  0  0  0
   56.7894   -4.4047   -8.8613 C   0  0  0  0  0  0  0  0  0  0  0  0
   61.0420   -6.7700   -8.2306 C   0  0  0  0  0  0  0  0  0  0  0  0
   60.0864   -6.1506   -9.2067 C   0  0  0  0  0  0  0  0  0  0  0  0
   60.4836   -6.0688  -10.3747 O   0  0  0  0  0  0  0  0  0  0  0  0
   58.8429   -5.7102   -8.7812 N   0  0  0  0  0  0  0  0  0  0  0  0
   58.6049   -5.8365   -7.7338 H   0  0  0  0  0  0  0  0  0  0  0  0
   53.2614   -6.5971   -5.9353 O   0  0  0  0  0  0  0  0  0  0  0  0
   54.0680   -6.6353   -4.8145 C   0  0  0  0  0  0  0  0  0  0  0  0
   55.3409   -7.1894   -4.8135 C   0  0  0  0  0  0  0  0  0  0  0  0
   56.1047   -7.2030   -3.6728 C   0  0  0  0  0  0  0  0  0  0  0  0
   55.6192   -6.6581   -2.4801 C   0  0  0  0  0  0  0  0  0  0  0  0
   54.3722   -6.1080   -2.4547 C   0  0  0  0  0  0  0  0  0  0  0  0
   53.6095   -6.1071   -3.6392 C   0  0  0  0  0  0  0  0  0  0  0  0
   53.8118   -5.5251   -1.2451 C   0  0  0  0  0  0  0  0  0  0  0  0
   53.2700   -4.3819   -1.2448 N   0  0  0  0  0  0  0  0  0  0  0  0
   53.8712   -6.2536   -0.0315 N   0  0  0  0  0  0  0  0  0  0  0  0
   53.1886   -3.7976   -2.0757 H   0  0  0  0  0  0  0  0  0  0  0  0
   54.3400   -5.8240    0.7827 H   0  0  0  0  0  0  0  0  0  0  0  0
   53.4501   -7.1954    0.0251 H   0  0  0  0  0  0  0  0  0  0  0  0
 17 18  1  0  0  0
 18 19  2  0  0  0
 18 20  1  0  0  0
 20 11  1  0  0  0
 11 12  2  0  0  0
 12 13  1  0  0  0
 13 14  2  0  0  0
 14 15  1  0  0  0
 15 10  1  0  0  0
 10  1  1  0  0  0
  1  2  2  0  0  0
  2  3  1  0  0  0
  3 22  1  0  0  0
 22 23  1  0  0  0
 23 24  2  0  0  0
 24 25  1  0  0  0
 25 26  2  0  0  0
 26 27  1  0  0  0
 27 29  1  0  0  0
 29 30  2  0  0  0
 29 31  1  0  0  0
 27 28  2  0  0  0
  3  4  2  0  0  0
  4  5  1  0  0  0
  4  6  1  0  0  0
  6  7  1  0  0  0
  6  8  2  0  0  0
  8  9  1  0  0  0
 15 16  2  0  0  0
 16 11  1  0  0  0
  8  1  1  0  0  0
 28 23  1  0  0  0
 20 21  1  0  0  0
 30 32  1  0  0  0
 31 33  1  0  0  0
 31 34  1  0  0  0
M  END
> <minimizedAffinity>
-9.70850

> <CNNscore>
0.3955342472

> <CNNaffinity>
6.9317154884

> <CNN_VS>
2.7417309284

> <CNNaffinity_variance>
0.1356488317

$$$$
[H]N=C(c1c([H])c([H])c([H])c(Oc2nc(Oc3c([H])c([H])c([H])c(N([H])C(=O)C([H])([H])[H])c3[H])c(F)c(C([H])([H])[H])c2F)c1[H])N([H])[H]


 34 36  0  0  0  0  0  0  0  0999 V2000
   54.7683   -4.3462   -8.2773 C   0  0  0  0  0  0  0  0  0  0  0  0
   55.3615   -4.8324   -7.1602 N   0  0  0  0  0  0  0  0  0  0  0  0
   56.6295   -5.2452   -7.0933 C   0  0  0  0  0  0  0  0  0  0  0  0
   57.4037   -5.1783   -8.2332 C   0  0  0  0  0  0  0  0  0  0  0  0
   58.7023   -5.5951   -8.1858 F   0  0  0  0  0  0  0  0  0  0  0  0
   56.8751   -4.6965   -9.4086 C   0  0  0  0  0  0  0  0  0  0  0  0
   57.6882   -4.6149  -10.6475 C   0  0  0  0  0  0  0  0  0  0  0  0
   55.5600   -4.2886   -9.4035 C   0  0  0  0  0  0  0  0  0  0  0  0
   55.0819   -3.8189  -10.5948 F   0  0  0  0  0  0  0  0  0  0  0  0
   53.4675   -3.9434   -8.2699 O   0  0  0  0  0  0  0  0  0  0  0  0
   50.2422   -4.2838   -6.5524 C   0  0  0  0  0  0  0  0  0  0  0  0
   50.2289   -5.6507   -6.4222 C   0  0  0  0  0  0  0  0  0  0  0  0
   51.2408   -6.4724   -6.8773 C   0  0  0  0  0  0  0  0  0  0  0  0
   52.3276   -5.9308   -7.4948 C   0  0  0  0  0  0  0  0  0  0  0  0
   52.4000   -4.5683   -7.6557 C   0  0  0  0  0  0  0  0  0  0  0  0
   51.3806   -3.7775   -7.1938 C   0  0  0  0  0  0  0  0  0  0  0  0
   47.6921   -2.1886   -4.5443 C   0  0  0  0  0  0  0  0  0  0  0  0
   48.7772   -3.1912   -4.8031 C   0  0  0  0  0  0  0  0  0  0  0  0
   49.2045   -3.7937   -3.8116 O   0  0  0  0  0  0  0  0  0  0  0  0
   49.2428   -3.3977   -6.0922 N   0  0  0  0  0  0  0  0  0  0  0  0
   48.7907   -2.8124   -6.8814 H   0  0  0  0  0  0  0  0  0  0  0  0
   57.1453   -5.7301   -5.8918 O   0  0  0  0  0  0  0  0  0  0  0  0
   56.3391   -6.2469   -4.8962 C   0  0  0  0  0  0  0  0  0  0  0  0
   55.7318   -7.4924   -4.9811 C   0  0  0  0  0  0  0  0  0  0  0  0
   54.9388   -7.9626   -3.9638 C   0  0  0  0  0  0  0  0  0  0  0  0
   54.7218   -7.1973   -2.8137 C   0  0  0  0  0  0  0  0  0  0  0  0
   55.3067   -5.9708   -2.7060 C   0  0  0  0  0  0  0  0  0  0  0  0
   56.1157   -5.5124   -3.7644 C   0  0  0  0  0  0  0  0  0  0  0  0
   55.1196   -5.1281   -1.5347 C   0  0  0  0  0  0  0  0  0  0  0  0
   53.9879   -4.6524   -1.2294 N   0  0  0  0  0  0  0  0  0  0  0  0
   56.2319   -4.8292   -0.7098 N   0  0  0  0  0  0  0  0  0  0  0  0
   53.1416   -4.8215   -1.7711 H   0  0  0  0  0  0  0  0  0  0  0  0
   56.4809   -3.8391   -0.5520 H   0  0  0  0  0  0  0  0  0  0  0  0
   56.7754   -5.5958   -0.2801 H   0  0  0  0  0  0  0  0  0  0  0  0
 17 18  1  0  0  0
 18 19  2  0  0  0
 18 20  1  0  0  0
 20 11  1  0  0  0
 11 12  2  0  0  0
 12 13  1  0  0  0
 13 14  2  0  0  0
 14 15  1  0  0  0
 15 10  1  0  0  0
 10  1  1  0  0  0
  1  2  2  0  0  0
  2  3  1  0  0  0
  3 22  1  0  0  0
 22 23  1  0  0  0
 23 24  2  0  0  0
 24 25  1  0  0  0
 25 26  2  0  0  0
 26 27  1  0  0  0
 27 29  1  0  0  0
 29 30  2  0  0  0
 29 31  1  0  0  0
 27 28  2  0  0  0
  3  4  2  0  0  0
  4  5  1  0  0  0
  4  6  1  0  0  0
  6  7  1  0  0  0
  6  8  2  0  0  0
  8  9  1  0  0  0
 15 16  2  0  0  0
 16 11  1  0  0  0
  8  1  1  0  0  0
 28 23  1  0  0  0
 20 21  1  0  0  0
 30 32  1  0  0  0
 31 33  1  0  0  0
 31 34  1  0  0  0
M  END
> <minimizedAffinity>
-9.66785

> <CNNscore>
0.3554155529

> <CNNaffinity>
6.9550132751

> <CNN_VS>
2.4719197750

> <CNNaffinity_variance>
0.1914197654

$$$$
[H]N=C(c1c([H])c([H])c([H])c(Oc2nc(Oc3c([H])c([H])c([H])c(N([H])C(=O)C([H])([H])[H])c3[H])c(F)c(C([H])([H])[H])c2F)c1[H])N([H])[H]


 34 36  0  0  0  0  0  0  0  0999 V2000
   54.8860   -4.0741   -7.7140 C   0  0  0  0  0  0  0  0  0  0  0  0
   54.2611   -5.0347   -6.9908 N   0  0  0  0  0  0  0  0  0  0  0  0
   52.9387   -5.1219   -6.8282 C   0  0  0  0  0  0  0  0  0  0  0  0
   52.1382   -4.1749   -7.4328 C   0  0  0  0  0  0  0  0  0  0  0  0
   50.7841   -4.2463   -7.2792 F   0  0  0  0  0  0  0  0  0  0  0  0
   52.6960   -3.1664   -8.1844 C   0  0  0  0  0  0  0  0  0  0  0  0
   51.8555   -2.1365   -8.8444 C   0  0  0  0  0  0  0  0  0  0  0  0
   54.0671   -3.1391   -8.3086 C   0  0  0  0  0  0  0  0  0  0  0  0
   54.5722   -2.1182   -9.0642 F   0  0  0  0  0  0  0  0  0  0  0  0
   56.2421   -4.0490   -7.8353 O   0  0  0  0  0  0  0  0  0  0  0  0
   57.3292   -4.2226  -11.3363 C   0  0  0  0  0  0  0  0  0  0  0  0
   58.3759   -5.0969  -11.1769 C   0  0  0  0  0  0  0  0  0  0  0  0
   58.7436   -5.6365   -9.9604 C   0  0  0  0  0  0  0  0  0  0  0  0
   58.0515   -5.3047   -8.8348 C   0  0  0  0  0  0  0  0  0  0  0  0
   56.9930   -4.4338   -8.9286 C   0  0  0  0  0  0  0  0  0  0  0  0
   56.6509   -3.9141  -10.1495 C   0  0  0  0  0  0  0  0  0  0  0  0
   56.1166   -3.4679  -14.9259 C   0  0  0  0  0  0  0  0  0  0  0  0
   56.5381   -4.2817  -13.7385 C   0  0  0  0  0  0  0  0  0  0  0  0
   56.5341   -5.5081  -13.8944 O   0  0  0  0  0  0  0  0  0  0  0  0
   56.9023   -3.6545  -12.5573 N   0  0  0  0  0  0  0  0  0  0  0  0
   56.8686   -2.5736  -12.5400 H   0  0  0  0  0  0  0  0  0  0  0  0
   52.3941   -6.1521   -6.0623 O   0  0  0  0  0  0  0  0  0  0  0  0
   51.9198   -5.9493   -4.7808 C   0  0  0  0  0  0  0  0  0  0  0  0
   50.5933   -5.6505   -4.5005 C   0  0  0  0  0  0  0  0  0  0  0  0
   50.1702   -5.4578   -3.2087 C   0  0  0  0  0  0  0  0  0  0  0  0
   51.0663   -5.5575   -2.1399 C   0  0  0  0  0  0  0  0  0  0  0  0
   52.3744   -5.8497   -2.3886 C   0  0  0  0  0  0  0  0  0  0  0  0
   52.7820   -6.0427   -3.7233 C   0  0  0  0  0  0  0  0  0  0  0  0
   53.3543   -5.9674   -1.3195 C   0  0  0  0  0  0  0  0  0  0  0  0
   54.3138   -6.7895   -1.3818 N   0  0  0  0  0  0  0  0  0  0  0  0
   53.2357   -5.1407   -0.1751 N   0  0  0  0  0  0  0  0  0  0  0  0
   54.4669   -7.4169   -2.1700 H   0  0  0  0  0  0  0  0  0  0  0  0
   53.1613   -5.5867    0.7537 H   0  0  0  0  0  0  0  0  0  0  0  0
   53.2251   -4.1129   -0.2810 H   0  0  0  0  0  0  0  0  0  0  0  0
 17 18  1  0  0  0
 18 19  2  0  0  0
 18 20  1  0  0  0
 20 11  1  0  0  0
 11 12  2  0  0  0
 12 13  1  0  0  0
 13 14  2  0  0  0
 14 15  1  0  0  0
 15 10  1  0  0  0
 10  1  1  0  0  0
  1  2  2  0  0  0
  2  3  1  0  0  0
  3 22  1  0  0  0
 22 23  1  0  0  0
 23 24  2  0  0  0
 24 25  1  0  0  0
 25 26  2  0  0  0
 26 27  1  0  0  0
 27 29  1  0  0  0
 29 30  2  0  0  0
 29 31  1  0  0  0
 27 28  2  0  0  0
  3  4  2  0  0  0
  4  5  1  0  0  0
  4  6  1  0  0  0
  6  7  1  0  0  0
  6  8  2  0  0  0
  8  9  1  0  0  0
 15 16  2  0  0  0
 16 11  1  0  0  0
  8  1  1  0  0  0
 28 23  1  0  0  0
 20 21  1  0  0  0
 30 32  1  0  0  0
 31 33  1  0  0  0
 31 34  1  0  0  0
M  END
> <minimizedAffinity>
-9.75501

> <CNNscore>
0.3456263244

> <CNNaffinity>
6.7302727699

> <CNN_VS>
2.3261594772

> <CNNaffinity_variance>
0.2459896803

$$$$
[H]N=C(c1c([H])c([H])c([H])c(Oc2nc(Oc3c([H])c([H])c([H])c(N([H])C(=O)C([H])([H])[H])c3[H])c(F)c(C([H])([H])[H])c2F)c1[H])N([H])[H]


 34 36  0  0  0  0  0  0  0  0999 V2000
   54.0413   -3.9067   -8.4237 C   0  0  0  0  0  0  0  0  0  0  0  0
   54.6025   -4.1169   -7.2083 N   0  0  0  0  0  0  0  0  0  0  0  0
   55.8886   -4.4143   -7.0080 C   0  0  0  0  0  0  0  0  0  0  0  0
   56.7180   -4.5181   -8.1056 C   0  0  0  0  0  0  0  0  0  0  0  0
   58.0360   -4.8210   -7.9224 F   0  0  0  0  0  0  0  0  0  0  0  0
   56.2247   -4.3190   -9.3745 C   0  0  0  0  0  0  0  0  0  0  0  0
   57.0973   -4.4252  -10.5703 C   0  0  0  0  0  0  0  0  0  0  0  0
   54.8880   -4.0156   -9.5052 C   0  0  0  0  0  0  0  0  0  0  0  0
   54.4467   -3.8277  -10.7852 F   0  0  0  0  0  0  0  0  0  0  0  0
   52.7191   -3.6068   -8.5506 O   0  0  0  0  0  0  0  0  0  0  0  0
   50.8971   -4.7907   -5.5930 C   0  0  0  0  0  0  0  0  0  0  0  0
   49.9265   -3.8202   -5.5551 C   0  0  0  0  0  0  0  0  0  0  0  0
   49.8430   -2.7856   -6.4655 C   0  0  0  0  0  0  0  0  0  0  0  0
   50.7584   -2.6914   -7.4702 C   0  0  0  0  0  0  0  0  0  0  0  0
   51.7551   -3.6325   -7.5620 C   0  0  0  0  0  0  0  0  0  0  0  0
   51.8128   -4.6484   -6.6441 C   0  0  0  0  0  0  0  0  0  0  0  0
   51.2657   -7.1581   -2.5624 C   0  0  0  0  0  0  0  0  0  0  0  0
   51.1455   -5.8676   -3.3174 C   0  0  0  0  0  0  0  0  0  0  0  0
   51.1680   -4.8373   -2.6344 O   0  0  0  0  0  0  0  0  0  0  0  0
   51.0188   -5.8767   -4.6977 N   0  0  0  0  0  0  0  0  0  0  0  0
   51.0135   -6.8406   -5.1880 H   0  0  0  0  0  0  0  0  0  0  0  0
   56.3679   -4.6122   -5.7136 O   0  0  0  0  0  0  0  0  0  0  0  0
   55.8417   -5.5702   -4.8689 C   0  0  0  0  0  0  0  0  0  0  0  0
   55.6509   -6.8927   -5.2459 C   0  0  0  0  0  0  0  0  0  0  0  0
   55.1241   -7.8084   -4.3690 C   0  0  0  0  0  0  0  0  0  0  0  0
   54.7654   -7.4318   -3.0710 C   0  0  0  0  0  0  0  0  0  0  0  0
   54.9428   -6.1392   -2.6762 C   0  0  0  0  0  0  0  0  0  0  0  0
   55.4852   -5.2199   -3.5958 C   0  0  0  0  0  0  0  0  0  0  0  0
   54.5897   -5.6865   -1.3394 C   0  0  0  0  0  0  0  0  0  0  0  0
   55.0144   -6.2739   -0.3025 N   0  0  0  0  0  0  0  0  0  0  0  0
   53.7478   -4.5570   -1.1887 N   0  0  0  0  0  0  0  0  0  0  0  0
   55.6226   -7.0910   -0.3280 H   0  0  0  0  0  0  0  0  0  0  0  0
   52.8674   -4.6615   -0.6584 H   0  0  0  0  0  0  0  0  0  0  0  0
   54.0204   -3.6520   -1.6060 H   0  0  0  0  0  0  0  0  0  0  0  0
 17 18  1  0  0  0
 18 19  2  0  0  0
 18 20  1  0  0  0
 20 11  1  0  0  0
 11 12  2  0  0  0
 12 13  1  0  0  0
 13 14  2  0  0  0
 14 15  1  0  0  0
 15 10  1  0  0  0
 10  1  1  0  0  0
  1  2  2  0  0  0
  2  3  1  0  0  0
  3 22  1  0  0  0
 22 23  1  0  0  0
 23 24  2  0  0  0
 24 25  1  0  0  0
 25 26  2  0  0  0
 26 27  1  0  0  0
 27 29  1  0  0  0
 29 30  2  0  0  0
 29 31  1  0  0  0
 27 28  2  0  0  0
  3  4  2  0  0  0
  4  5  1  0  0  0
  4  6  1  0  0  0
  6  7  1  0  0  0
  6  8  2  0  0  0
  8  9  1  0  0  0
 15 16  2  0  0  0
 16 11  1  0  0  0
  8  1  1  0  0  0
 28 23  1  0  0  0
 20 21  1  0  0  0
 30 32  1  0  0  0
 31 33  1  0  0  0
 31 34  1  0  0  0
M  END
> <minimizedAffinity>
-10.14363

> <CNNscore>
0.3173942566

> <CNNaffinity>
6.6880197525

> <CNN_VS>
2.1227390766

> <CNNaffinity_variance>
0.5465046167

$$$$
[H]N=C(c1c([H])c([H])c([H])c(Oc2nc(Oc3c([H])c([H])c([H])c(N([H])C(=O)C([H])([H])[H])c3[H])c(F)c(C([H])([H])[H])c2F)c1[H])N([H])[H]


 34 36  0  0  0  0  0  0  0  0999 V2000
   55.1400   -4.9020   -7.9118 C   0  0  0  0  0  0  0  0  0  0  0  0
   53.8661   -5.2790   -7.6450 N   0  0  0  0  0  0  0  0  0  0  0  0
   53.5065   -6.0753   -6.6354 C   0  0  0  0  0  0  0  0  0  0  0  0
   54.4895   -6.5564   -5.7954 C   0  0  0  0  0  0  0  0  0  0  0  0
   54.1429   -7.3716   -4.7573 F   0  0  0  0  0  0  0  0  0  0  0  0
   55.8079   -6.2198   -5.9991 C   0  0  0  0  0  0  0  0  0  0  0  0
   56.8828   -6.7248   -5.1090 C   0  0  0  0  0  0  0  0  0  0  0  0
   56.1049   -5.3942   -7.0604 C   0  0  0  0  0  0  0  0  0  0  0  0
   57.4278   -5.0898   -7.2206 F   0  0  0  0  0  0  0  0  0  0  0  0
   55.4314   -4.0855   -8.9620 O   0  0  0  0  0  0  0  0  0  0  0  0
   56.9275   -4.0223  -12.3125 C   0  0  0  0  0  0  0  0  0  0  0  0
   58.1152   -4.6425  -12.0122 C   0  0  0  0  0  0  0  0  0  0  0  0
   58.4493   -5.0844  -10.7476 C   0  0  0  0  0  0  0  0  0  0  0  0
   57.5757   -4.9114   -9.7165 C   0  0  0  0  0  0  0  0  0  0  0  0
   56.3699   -4.2970   -9.9528 C   0  0  0  0  0  0  0  0  0  0  0  0
   56.0654   -3.8689  -11.2185 C   0  0  0  0  0  0  0  0  0  0  0  0
   55.8427   -3.5904  -15.9952 C   0  0  0  0  0  0  0  0  0  0  0  0
   56.2470   -4.2943  -14.7338 C   0  0  0  0  0  0  0  0  0  0  0  0
   56.3042   -5.5276  -14.7973 O   0  0  0  0  0  0  0  0  0  0  0  0
   56.5304   -3.5659  -13.5891 N   0  0  0  0  0  0  0  0  0  0  0  0
   56.4481   -2.4895  -13.6543 H   0  0  0  0  0  0  0  0  0  0  0  0
   52.1645   -6.4041   -6.4469 O   0  0  0  0  0  0  0  0  0  0  0  0
   51.4105   -5.8725   -5.4187 C   0  0  0  0  0  0  0  0  0  0  0  0
   50.3653   -4.9825   -5.6252 C   0  0  0  0  0  0  0  0  0  0  0  0
   49.6446   -4.4817   -4.5694 C   0  0  0  0  0  0  0  0  0  0  0  0
   49.9457   -4.8559   -3.2561 C   0  0  0  0  0  0  0  0  0  0  0  0
   50.9676   -5.7284   -3.0265 C   0  0  0  0  0  0  0  0  0  0  0  0
   51.6909   -6.2272   -4.1279 C   0  0  0  0  0  0  0  0  0  0  0  0
   51.3286   -6.1560   -1.6835 C   0  0  0  0  0  0  0  0  0  0  0  0
   52.2946   -5.6346   -1.0548 N   0  0  0  0  0  0  0  0  0  0  0  0
   50.5809   -7.1839   -1.0577 N   0  0  0  0  0  0  0  0  0  0  0  0
   52.8788   -4.8918   -1.4360 H   0  0  0  0  0  0  0  0  0  0  0  0
   51.0755   -8.0321   -0.7366 H   0  0  0  0  0  0  0  0  0  0  0  0
   49.5613   -7.0750   -0.9310 H   0  0  0  0  0  0  0  0  0  0  0  0
 17 18  1  0  0  0
 18 19  2  0  0  0
 18 20  1  0  0  0
 20 11  1  0  0  0
 11 12  2  0  0  0
 12 13  1  0  0  0
 13 14  2  0  0  0
 14 15  1  0  0  0
 15 10  1  0  0  0
 10  1  1  0  0  0
  1  2  2  0  0  0
  2  3  1  0  0  0
  3 22  1  0  0  0
 22 23  1  0  0  0
 23 24  2  0  0  0
 24 25  1  0  0  0
 25 26  2  0  0  0
 26 27  1  0  0  0
 27 29  1  0  0  0
 29 30  2  0  0  0
 29 31  1  0  0  0
 27 28  2  0  0  0
  3  4  2  0  0  0
  4  5  1  0  0  0
  4  6  1  0  0  0
  6  7  1  0  0  0
  6  8  2  0  0  0
  8  9  1  0  0  0
 15 16  2  0  0  0
 16 11  1  0  0  0
  8  1  1  0  0  0
 28 23  1  0  0  0
 20 21  1  0  0  0
 30 32  1  0  0  0
 31 33  1  0  0  0
 31 34  1  0  0  0
M  END
> <minimizedAffinity>
-9.86772

> <CNNscore>
0.3119417727

> <CNNaffinity>
6.4938645363

> <CNN_VS>
2.0257077217

> <CNNaffinity_variance>
0.1591704339

$$$$
[H]N=C(c1c([H])c([H])c([H])c(Oc2nc(Oc3c([H])c([H])c([H])c(N([H])C(=O)C([H])([H])[H])c3[H])c(F)c(C([H])([H])[H])c2F)c1[H])N([H])[H]


 34 36  0  0  0  0  0  0  0  0999 V2000
   51.9002   -5.1840   -6.4317 C   0  0  0  0  0  0  0  0  0  0  0  0
   51.4453   -5.5134   -5.1986 N   0  0  0  0  0  0  0  0  0  0  0  0
   50.5130   -4.8328   -4.5274 C   0  0  0  0  0  0  0  0  0  0  0  0
   49.9641   -3.7130   -5.1174 C   0  0  0  0  0  0  0  0  0  0  0  0
   49.0096   -3.0036   -4.4482 F   0  0  0  0  0  0  0  0  0  0  0  0
   50.3727   -3.3122   -6.3686 C   0  0  0  0  0  0  0  0  0  0  0  0
   49.7970   -2.1113   -7.0236 C   0  0  0  0  0  0  0  0  0  0  0  0
   51.3384   -4.0624   -7.0016 C   0  0  0  0  0  0  0  0  0  0  0  0
   51.7104   -3.6230   -8.2413 F   0  0  0  0  0  0  0  0  0  0  0  0
   52.8554   -5.9274   -7.0558 O   0  0  0  0  0  0  0  0  0  0  0  0
   55.9844   -4.6625   -8.4973 C   0  0  0  0  0  0  0  0  0  0  0  0
   56.8345   -5.0330   -7.4847 C   0  0  0  0  0  0  0  0  0  0  0  0
   56.4223   -5.6854   -6.3398 C   0  0  0  0  0  0  0  0  0  0  0  0
   55.1059   -5.9940   -6.1724 C   0  0  0  0  0  0  0  0  0  0  0  0
   54.2048   -5.6494   -7.1505 C   0  0  0  0  0  0  0  0  0  0  0  0
   54.6430   -5.0025   -8.2763 C   0  0  0  0  0  0  0  0  0  0  0  0
   57.5165   -3.5277  -11.8574 C   0  0  0  0  0  0  0  0  0  0  0  0
   57.2787   -4.3907  -10.6538 C   0  0  0  0  0  0  0  0  0  0  0  0
   57.9475   -5.4287  -10.5920 O   0  0  0  0  0  0  0  0  0  0  0  0
   56.3553   -4.0085   -9.6933 N   0  0  0  0  0  0  0  0  0  0  0  0
   55.8306   -3.0767   -9.8543 H   0  0  0  0  0  0  0  0  0  0  0  0
   50.1134   -5.2565   -3.2603 O   0  0  0  0  0  0  0  0  0  0  0  0
   51.0006   -5.7883   -2.3448 C   0  0  0  0  0  0  0  0  0  0  0  0
   52.0680   -5.0736   -1.8184 C   0  0  0  0  0  0  0  0  0  0  0  0
   52.9228   -5.6469   -0.9099 C   0  0  0  0  0  0  0  0  0  0  0  0
   52.7401   -6.9684   -0.4907 C   0  0  0  0  0  0  0  0  0  0  0  0
   51.6994   -7.6917   -0.9928 C   0  0  0  0  0  0  0  0  0  0  0  0
   50.8372   -7.0792   -1.9235 C   0  0  0  0  0  0  0  0  0  0  0  0
   51.4565   -9.0701   -0.5954 C   0  0  0  0  0  0  0  0  0  0  0  0
   50.3125   -9.4669   -0.2293 N   0  0  0  0  0  0  0  0  0  0  0  0
   52.5270   -9.9979   -0.6176 N   0  0  0  0  0  0  0  0  0  0  0  0
   49.4939   -8.8616   -0.1868 H   0  0  0  0  0  0  0  0  0  0  0  0
   52.7710  -10.4950    0.2545 H   0  0  0  0  0  0  0  0  0  0  0  0
   53.0457  -10.1650   -1.4954 H   0  0  0  0  0  0  0  0  0  0  0  0
 17 18  1  0  0  0
 18 19  2  0  0  0
 18 20  1  0  0  0
 20 11  1  0  0  0
 11 12  2  0  0  0
 12 13  1  0  0  0
 13 14  2  0  0  0
 14 15  1  0  0  0
 15 10  1  0  0  0
 10  1  1  0  0  0
  1  2  2  0  0  0
  2  3  1  0  0  0
  3 22  1  0  0  0
 22 23  1  0  0  0
 23 24  2  0  0  0
 24 25  1  0  0  0
 25 26  2  0  0  0
 26 27  1  0  0  0
 27 29  1  0  0  0
 29 30  2  0  0  0
 29 31  1  0  0  0
 27 28  2  0  0  0
  3  4  2  0  0  0
  4  5  1  0  0  0
  4  6  1  0  0  0
  6  7  1  0  0  0
  6  8  2  0  0  0
  8  9  1  0  0  0
 15 16  2  0  0  0
 16 11  1  0  0  0
  8  1  1  0  0  0
 28 23  1  0  0  0
 20 21  1  0  0  0
 30 32  1  0  0  0
 31 33  1  0  0  0
 31 34  1  0  0  0
M  END
> <minimizedAffinity>
-10.07073

> <CNNscore>
0.2880546749

> <CNNaffinity>
6.5614233017

> <CNN_VS>
1.8900486231

> <CNNaffinity_variance>
0.4150823653

$$$$
[H]N=C(c1c([H])c([H])c([H])c(Oc2nc(Oc3c([H])c([H])c([H])c(N([H])C(=O)C([H])([H])[H])c3[H])c(F)c(C([H])([H])[H])c2F)c1[H])N([H])[H]


 34 36  0  0  0  0  0  0  0  0999 V2000
   55.2078   -5.0275   -7.5576 C   0  0  0  0  0  0  0  0  0  0  0  0
   53.9279   -5.3957   -7.3077 N   0  0  0  0  0  0  0  0  0  0  0  0
   53.5501   -6.1934   -6.3059 C   0  0  0  0  0  0  0  0  0  0  0  0
   54.5191   -6.6856   -5.4562 C   0  0  0  0  0  0  0  0  0  0  0  0
   54.1537   -7.5024   -4.4259 F   0  0  0  0  0  0  0  0  0  0  0  0
   55.8424   -6.3584   -5.6426 C   0  0  0  0  0  0  0  0  0  0  0  0
   56.9025   -6.8755   -4.7418 C   0  0  0  0  0  0  0  0  0  0  0  0
   56.1586   -5.5308   -6.6967 C   0  0  0  0  0  0  0  0  0  0  0  0
   57.4857   -5.2361   -6.8397 F   0  0  0  0  0  0  0  0  0  0  0  0
   55.5182   -4.2090   -8.6007 O   0  0  0  0  0  0  0  0  0  0  0  0
   57.0427   -4.1143  -11.9377 C   0  0  0  0  0  0  0  0  0  0  0  0
   58.2015   -4.7911  -11.6468 C   0  0  0  0  0  0  0  0  0  0  0  0
   58.5069   -5.2814  -10.3927 C   0  0  0  0  0  0  0  0  0  0  0  0
   57.6329   -5.1013   -9.3633 C   0  0  0  0  0  0  0  0  0  0  0  0
   56.4552   -4.4313   -9.5906 C   0  0  0  0  0  0  0  0  0  0  0  0
   56.1788   -3.9560  -10.8458 C   0  0  0  0  0  0  0  0  0  0  0  0
   55.9647   -3.5360  -15.6022 C   0  0  0  0  0  0  0  0  0  0  0  0
   56.3175   -4.2907  -14.3549 C   0  0  0  0  0  0  0  0  0  0  0  0
   56.2653   -5.5233  -14.4356 O   0  0  0  0  0  0  0  0  0  0  0  0
   56.6750   -3.6065  -13.2037 N   0  0  0  0  0  0  0  0  0  0  0  0
   56.6872   -2.5262  -13.2535 H   0  0  0  0  0  0  0  0  0  0  0  0
   52.2034   -6.5125   -6.1350 O   0  0  0  0  0  0  0  0  0  0  0  0
   51.3922   -5.8408   -5.2411 C   0  0  0  0  0  0  0  0  0  0  0  0
   51.2688   -6.2039   -3.9068 C   0  0  0  0  0  0  0  0  0  0  0  0
   50.4489   -5.5037   -3.0569 C   0  0  0  0  0  0  0  0  0  0  0  0
   49.7154   -4.4045   -3.5143 C   0  0  0  0  0  0  0  0  0  0  0  0
   49.8191   -4.0276   -4.8202 C   0  0  0  0  0  0  0  0  0  0  0  0
   50.6676   -4.7634   -5.6709 C   0  0  0  0  0  0  0  0  0  0  0  0
   49.0823   -2.8929   -5.3555 C   0  0  0  0  0  0  0  0  0  0  0  0
   48.1262   -2.3597   -4.7216 N   0  0  0  0  0  0  0  0  0  0  0  0
   49.4414   -2.3665   -6.6208 N   0  0  0  0  0  0  0  0  0  0  0  0
   47.8088   -2.6800   -3.8078 H   0  0  0  0  0  0  0  0  0  0  0  0
   48.7240   -2.3254   -7.3630 H   0  0  0  0  0  0  0  0  0  0  0  0
   50.4056   -2.0334   -6.7853 H   0  0  0  0  0  0  0  0  0  0  0  0
 17 18  1  0  0  0
 18 19  2  0  0  0
 18 20  1  0  0  0
 20 11  1  0  0  0
 11 12  2  0  0  0
 12 13  1  0  0  0
 13 14  2  0  0  0
 14 15  1  0  0  0
 15 10  1  0  0  0
 10  1  1  0  0  0
  1  2  2  0  0  0
  2  3  1  0  0  0
  3 22  1  0  0  0
 22 23  1  0  0  0
 23 24  2  0  0  0
 24 25  1  0  0  0
 25 26  2  0  0  0
 26 27  1  0  0  0
 27 29  1  0  0  0
 29 30  2  0  0  0
 29 31  1  0  0  0
 27 28  2  0  0  0
  3  4  2  0  0  0
  4  5  1  0  0  0
  4  6  1  0  0  0
  6  7  1  0  0  0
  6  8  2  0  0  0
  8  9  1  0  0  0
 15 16  2  0  0  0
 16 11  1  0  0  0
  8  1  1  0  0  0
 28 23  1  0  0  0
 20 21  1  0  0  0
 30 32  1  0  0  0
 31 33  1  0  0  0
 31 34  1  0  0  0
M  END
> <minimizedAffinity>
-10.32402

> <CNNscore>
0.2785480022

> <CNNaffinity>
6.7459678650

> <CNN_VS>
1.8790758848

> <CNNaffinity_variance>
0.2033176422

$$$$
[H]c1c([H])c(C(N=[N+]=[N-])(C([H])([H])[H])C([H])([H])[H])c(Cl)c([H])c1C(F)(F)F


 17 17  0  0  0  0  0  0  0  0999 V2000
   52.3280   -4.9453   -6.7942 C   0  0  0  0  0  0  0  0  0  0  0  0
   53.4088   -5.8180   -6.5465 C   0  0  0  0  0  0  0  0  0  0  0  0
   54.5526   -5.5167   -7.2308 C   0  0  0  0  0  0  0  0  0  0  0  0
   54.7514   -4.5147   -8.1096 C   0  0  0  0  0  0  0  0  0  0  0  0
   53.6556   -3.6493   -8.3533 C   0  0  0  0  0  0  0  0  0  0  0  0
   52.4536   -3.8909   -7.6759 C   0  0  0  0  0  0  0  0  0  0  0  0
   51.0741   -2.8233   -8.0033 Cl  0  0  0  0  0  0  0  0  0  0  0  0
   56.0329   -4.2246   -8.8044 C   0  0  0  0  0  0  0  0  0  0  0  0
   56.2958   -5.1265   -9.8334 F   0  0  0  0  0  0  0  0  0  0  0  0
   57.0700   -4.1348   -7.9366 F   0  0  0  0  0  0  0  0  0  0  0  0
   55.9577   -2.9988   -9.4809 F   0  0  0  0  0  0  0  0  0  0  0  0
   50.0640   -5.9281   -6.8986 C   0  0  0  0  0  0  0  0  0  0  0  0
   51.0640   -5.1005   -6.0238 C   0  0  0  0  0  0  0  0  0  0  0  0
   51.2136   -5.8591   -4.7524 C   0  0  0  0  0  0  0  0  0  0  0  0
   50.4363   -3.8240   -5.7757 N   0  0  0  0  0  0  0  0  0  0  0  0
   49.5491   -3.7370   -4.9591 N   0  0  0  0  0  0  0  0  0  0  0  0
   48.7148   -2.9925   -4.3490 N   0  0  0  0  0  0  0  0  0  0  0  0
 12 13  1  0  0  0
 13 14  1  0  0  0
 13 15  1  0  0  0
 15 16  2  0  0  0
 16 17  2  0  0  0
 13  1  1  0  0  0
  1  2  2  0  0  0
  2  3  1  0  0  0
  3  4  2  0  0  0
  4  8  1  0  0  0
  8  9  1  0  0  0
  8 10  1  0  0  0
  8 11  1  0  0  0
  4  5  1  0  0  0
  5  6  2  0  0  0
  6  7  1  0  0  0
  6  1  1  0  0  0
M  CHG 1  16   1
M  CHG 1  17  -1
M  END
> <minimizedAffinity>
-7.76215

> <CNNscore>
0.5990967155

> <CNNaffinity>
5.8249998093

> <CNN_VS>
3.4897382259

> <CNNaffinity_variance>
0.2865658700

$$$$
[H]c1c([H])c(C(N=[N+]=[N-])(C([H])([H])[H])C([H])([H])[H])c(Cl)c([H])c1C(F)(F)F


 17 17  0  0  0  0  0  0  0  0999 V2000
   52.2480   -4.9551   -6.6946 C   0  0  0  0  0  0  0  0  0  0  0  0
   53.1656   -5.8549   -6.1120 C   0  0  0  0  0  0  0  0  0  0  0  0
   54.4586   -5.6968   -6.5250 C   0  0  0  0  0  0  0  0  0  0  0  0
   54.9389   -4.8114   -7.4201 C   0  0  0  0  0  0  0  0  0  0  0  0
   54.0052   -3.9177   -8.0018 C   0  0  0  0  0  0  0  0  0  0  0  0
   52.6623   -4.0140   -7.6152 C   0  0  0  0  0  0  0  0  0  0  0  0
   51.4899   -2.9128   -8.3653 Cl  0  0  0  0  0  0  0  0  0  0  0  0
   56.3669   -4.6735   -7.8088 C   0  0  0  0  0  0  0  0  0  0  0  0
   56.9990   -3.6227   -7.1472 F   0  0  0  0  0  0  0  0  0  0  0  0
   56.5193   -4.5865   -9.1527 F   0  0  0  0  0  0  0  0  0  0  0  0
   57.1009   -5.7904   -7.3849 F   0  0  0  0  0  0  0  0  0  0  0  0
   50.3336   -3.4676   -6.2201 C   0  0  0  0  0  0  0  0  0  0  0  0
   50.8303   -4.9519   -6.2413 C   0  0  0  0  0  0  0  0  0  0  0  0
   49.8987   -5.6779   -7.1463 C   0  0  0  0  0  0  0  0  0  0  0  0
   50.7063   -5.4477   -4.8908 N   0  0  0  0  0  0  0  0  0  0  0  0
   49.8519   -5.0019   -4.1610 N   0  0  0  0  0  0  0  0  0  0  0  0
   49.2887   -5.0282   -3.0188 N   0  0  0  0  0  0  0  0  0  0  0  0
 12 13  1  0  0  0
 13 14  1  0  0  0
 13 15  1  0  0  0
 15 16  2  0  0  0
 16 17  2  0  0  0
 13  1  1  0  0  0
  1  2  2  0  0  0
  2  3  1  0  0  0
  3  4  2  0  0  0
  4  8  1  0  0  0
  8  9  1  0  0  0
  8 10  1  0  0  0
  8 11  1  0  0  0
  4  5  1  0  0  0
  5  6  2  0  0  0
  6  7  1  0  0  0
  6  1  1  0  0  0
M  CHG 1  16   1
M  CHG 1  17  -1
M  END
> <minimizedAffinity>
-7.45507

> <CNNscore>
0.5863093734

> <CNNaffinity>
5.8870606422

> <CNN_VS>
3.4516389370

> <CNNaffinity_variance>
0.2631557584

$$$$
[H]c1c([H])c(C(N=[N+]=[N-])(C([H])([H])[H])C([H])([H])[H])c(Cl)c([H])c1C(F)(F)F


 17 17  0  0  0  0  0  0  0  0999 V2000
   62.8220   -7.4425  -10.8108 C   0  0  0  0  0  0  0  0  0  0  0  0
   62.4419   -6.5495  -11.8352 C   0  0  0  0  0  0  0  0  0  0  0  0
   63.0492   -6.7721  -13.0389 C   0  0  0  0  0  0  0  0  0  0  0  0
   63.9631   -7.7144  -13.3430 C   0  0  0  0  0  0  0  0  0  0  0  0
   64.3400   -8.6008  -12.3031 C   0  0  0  0  0  0  0  0  0  0  0  0
   63.7475   -8.4394  -11.0441 C   0  0  0  0  0  0  0  0  0  0  0  0
   64.2412   -9.5323   -9.7358 Cl  0  0  0  0  0  0  0  0  0  0  0  0
   64.5693   -7.9204  -14.6844 C   0  0  0  0  0  0  0  0  0  0  0  0
   64.8814   -9.2564  -14.9274 F   0  0  0  0  0  0  0  0  0  0  0  0
   65.6359   -7.1093  -14.8877 F   0  0  0  0  0  0  0  0  0  0  0  0
   63.6384   -7.6332  -15.6928 F   0  0  0  0  0  0  0  0  0  0  0  0
   60.9757   -6.3413   -9.5936 C   0  0  0  0  0  0  0  0  0  0  0  0
   62.1466   -7.3748   -9.4862 C   0  0  0  0  0  0  0  0  0  0  0  0
   61.5199   -8.6535   -9.0547 C   0  0  0  0  0  0  0  0  0  0  0  0
   63.0386   -6.8826   -8.4628 N   0  0  0  0  0  0  0  0  0  0  0  0
   63.4383   -5.7427   -8.5088 N   0  0  0  0  0  0  0  0  0  0  0  0
   64.1368   -4.8229   -7.9717 N   0  0  0  0  0  0  0  0  0  0  0  0
 12 13  1  0  0  0
 13 14  1  0  0  0
 13 15  1  0  0  0
 15 16  2  0  0  0
 16 17  2  0  0  0
 13  1  1  0  0  0
  1  2  2  0  0  0
  2  3  1  0  0  0
  3  4  2  0  0  0
  4  8  1  0  0  0
  8  9  1  0  0  0
  8 10  1  0  0  0
  8 11  1  0  0  0
  4  5  1  0  0  0
  5  6  2  0  0  0
  6  7  1  0  0  0
  6  1  1  0  0  0
M  CHG 1  16   1
M  CHG 1  17  -1
M  END
> <minimizedAffinity>
-2.39111

> <CNNscore>
0.5715638995

> <CNNaffinity>
3.8744044304

> <CNN_VS>
2.2144696712

> <CNNaffinity_variance>
0.0456110202

$$$$
[H]c1c([H])c(C(N=[N+]=[N-])(C([H])([H])[H])C([H])([H])[H])c(Cl)c([H])c1C(F)(F)F


 17 17  0  0  0  0  0  0  0  0999 V2000
   52.0349   -4.3686   -7.0206 C   0  0  0  0  0  0  0  0  0  0  0  0
   52.2299   -3.4451   -8.0696 C   0  0  0  0  0  0  0  0  0  0  0  0
   53.5005   -3.4133   -8.5715 C   0  0  0  0  0  0  0  0  0  0  0  0
   54.5663   -4.1344   -8.1719 C   0  0  0  0  0  0  0  0  0  0  0  0
   54.3576   -5.0538   -7.1135 C   0  0  0  0  0  0  0  0  0  0  0  0
   53.0751   -5.1492   -6.5583 C   0  0  0  0  0  0  0  0  0  0  0  0
   52.8221   -6.2806   -5.2146 Cl  0  0  0  0  0  0  0  0  0  0  0  0
   55.9216   -4.0706   -8.7788 C   0  0  0  0  0  0  0  0  0  0  0  0
   56.9236   -3.9008   -7.8256 F   0  0  0  0  0  0  0  0  0  0  0  0
   55.9942   -3.1359   -9.7575 F   0  0  0  0  0  0  0  0  0  0  0  0
   56.2565   -5.3010   -9.3619 F   0  0  0  0  0  0  0  0  0  0  0  0
   49.7416   -3.4502   -7.0320 C   0  0  0  0  0  0  0  0  0  0  0  0
   50.6690   -4.5779   -6.4675 C   0  0  0  0  0  0  0  0  0  0  0  0
   50.0370   -5.8626   -6.8726 C   0  0  0  0  0  0  0  0  0  0  0  0
   50.6546   -4.4428   -5.0299 N   0  0  0  0  0  0  0  0  0  0  0  0
   49.6742   -4.7707   -4.4034 N   0  0  0  0  0  0  0  0  0  0  0  0
   49.1146   -4.8986   -3.2663 N   0  0  0  0  0  0  0  0  0  0  0  0
 12 13  1  0  0  0
 13 14  1  0  0  0
 13 15  1  0  0  0
 15 16  2  0  0  0
 16 17  2  0  0  0
 13  1  1  0  0  0
  1  2  2  0  0  0
  2  3  1  0  0  0
  3  4  2  0  0  0
  4  8  1  0  0  0
  8  9  1  0  0  0
  8 10  1  0  0  0
  8 11  1  0  0  0
  4  5  1  0  0  0
  5  6  2  0  0  0
  6  7  1  0  0  0
  6  1  1  0  0  0
M  CHG 1  16   1
M  CHG 1  17  -1
M  END
> <minimizedAffinity>
-7.63619

> <CNNscore>
0.5533021092

> <CNNaffinity>
5.8403878212

> <CNN_VS>
3.2314989567

> <CNNaffinity_variance>
0.1974817812

$$$$
[H]c1c([H])c(C(N=[N+]=[N-])(C([H])([H])[H])C([H])([H])[H])c(Cl)c([H])c1C(F)(F)F


 17 17  0  0  0  0  0  0  0  0999 V2000
   54.1788   -4.6501   -7.6250 C   0  0  0  0  0  0  0  0  0  0  0  0
   54.2478   -5.6643   -6.6464 C   0  0  0  0  0  0  0  0  0  0  0  0
   53.0661   -5.9243   -6.0113 C   0  0  0  0  0  0  0  0  0  0  0  0
   51.8761   -5.3203   -6.1979 C   0  0  0  0  0  0  0  0  0  0  0  0
   51.8226   -4.2995   -7.1797 C   0  0  0  0  0  0  0  0  0  0  0  0
   52.9950   -3.9880   -7.8802 C   0  0  0  0  0  0  0  0  0  0  0  0
   52.9329   -2.6905   -9.0894 Cl  0  0  0  0  0  0  0  0  0  0  0  0
   50.6168   -5.6685   -5.4892 C   0  0  0  0  0  0  0  0  0  0  0  0
   49.9037   -4.5410   -5.0873 F   0  0  0  0  0  0  0  0  0  0  0  0
   50.8355   -6.5199   -4.4577 F   0  0  0  0  0  0  0  0  0  0  0  0
   49.7222   -6.3039   -6.3620 F   0  0  0  0  0  0  0  0  0  0  0  0
   55.6779   -2.8233   -8.3448 C   0  0  0  0  0  0  0  0  0  0  0  0
   55.3716   -4.3537   -8.4644 C   0  0  0  0  0  0  0  0  0  0  0  0
   56.6123   -5.0503   -8.0292 C   0  0  0  0  0  0  0  0  0  0  0  0
   55.1131   -4.6148   -9.8609 N   0  0  0  0  0  0  0  0  0  0  0  0
   55.8982   -4.2392  -10.6999 N   0  0  0  0  0  0  0  0  0  0  0  0
   56.2124   -4.1808  -11.9329 N   0  0  0  0  0  0  0  0  0  0  0  0
 12 13  1  0  0  0
 13 14  1  0  0  0
 13 15  1  0  0  0
 15 16  2  0  0  0
 16 17  2  0  0  0
 13  1  1  0  0  0
  1  2  2  0  0  0
  2  3  1  0  0  0
  3  4  2  0  0  0
  4  8  1  0  0  0
  8  9  1  0  0  0
  8 10  1  0  0  0
  8 11  1  0  0  0
  4  5  1  0  0  0
  5  6  2  0  0  0
  6  7  1  0  0  0
  6  1  1  0  0  0
M  CHG 1  16   1
M  CHG 1  17  -1
M  END
> <minimizedAffinity>
-6.57520

> <CNNscore>
0.4776798487

> <CNNaffinity>
5.5839028358

> <CNN_VS>
2.6673178673

> <CNNaffinity_variance>
0.3483214974

$$$$
[H]c1c([H])c(C(N=[N+]=[N-])(C([H])([H])[H])C([H])([H])[H])c(Cl)c([H])c1C(F)(F)F


 17 17  0  0  0  0  0  0  0  0999 V2000
   52.0963   -4.4827   -6.8764 C   0  0  0  0  0  0  0  0  0  0  0  0
   52.0766   -3.5150   -7.9033 C   0  0  0  0  0  0  0  0  0  0  0  0
   53.2026   -3.4826   -8.6769 C   0  0  0  0  0  0  0  0  0  0  0  0
   54.3104   -4.2403   -8.5578 C   0  0  0  0  0  0  0  0  0  0  0  0
   54.3190   -5.2040   -7.5185 C   0  0  0  0  0  0  0  0  0  0  0  0
   53.1916   -5.3022   -6.6930 C   0  0  0  0  0  0  0  0  0  0  0  0
   53.2151   -6.4902   -5.3747 Cl  0  0  0  0  0  0  0  0  0  0  0  0
   55.4963   -4.1725   -9.4514 C   0  0  0  0  0  0  0  0  0  0  0  0
   55.1548   -4.2845  -10.7975 F   0  0  0  0  0  0  0  0  0  0  0  0
   56.4486   -5.0694   -9.0973 F   0  0  0  0  0  0  0  0  0  0  0  0
   56.0864   -2.9021   -9.3879 F   0  0  0  0  0  0  0  0  0  0  0  0
   50.0951   -5.9097   -6.6288 C   0  0  0  0  0  0  0  0  0  0  0  0
   50.8840   -4.6931   -6.0389 C   0  0  0  0  0  0  0  0  0  0  0  0
   51.1744   -5.0467   -4.6231 C   0  0  0  0  0  0  0  0  0  0  0  0
   49.9956   -3.5564   -6.1003 N   0  0  0  0  0  0  0  0  0  0  0  0
   49.3040   -3.2797   -5.1482 N   0  0  0  0  0  0  0  0  0  0  0  0
   48.4404   -2.4970   -4.6343 N   0  0  0  0  0  0  0  0  0  0  0  0
 12 13  1  0  0  0
 13 14  1  0  0  0
 13 15  1  0  0  0
 15 16  2  0  0  0
 16 17  2  0  0  0
 13  1  1  0  0  0
  1  2  2  0  0  0
  2  3  1  0  0  0
  3  4  2  0  0  0
  4  8  1  0  0  0
  8  9  1  0  0  0
  8 10  1  0  0  0
  8 11  1  0  0  0
  4  5  1  0  0  0
  5  6  2  0  0  0
  6  7  1  0  0  0
  6  1  1  0  0  0
M  CHG 1  16   1
M  CHG 1  17  -1
M  END
> <minimizedAffinity>
-7.77529

> <CNNscore>
0.4758597016

> <CNNaffinity>
5.5349912643

> <CNN_VS>
2.6338791847

> <CNNaffinity_variance>
0.2988694906

$$$$
[H]c1c([H])c(C(N=[N+]=[N-])(C([H])([H])[H])C([H])([H])[H])c(Cl)c([H])c1C(F)(F)F


 17 17  0  0  0  0  0  0  0  0999 V2000
   54.2620   -4.6496   -7.1932 C   0  0  0  0  0  0  0  0  0  0  0  0
   53.6540   -5.5585   -6.3013 C   0  0  0  0  0  0  0  0  0  0  0  0
   52.2919   -5.4686   -6.2373 C   0  0  0  0  0  0  0  0  0  0  0  0
   51.4869   -4.6156   -6.9006 C   0  0  0  0  0  0  0  0  0  0  0  0
   52.1114   -3.7044   -7.7886 C   0  0  0  0  0  0  0  0  0  0  0  0
   53.5058   -3.7481   -7.9146 C   0  0  0  0  0  0  0  0  0  0  0  0
   54.2887   -2.5878   -9.0058 Cl  0  0  0  0  0  0  0  0  0  0  0  0
   50.0038   -4.5858   -6.8051 C   0  0  0  0  0  0  0  0  0  0  0  0
   49.5600   -4.2262   -5.5343 F   0  0  0  0  0  0  0  0  0  0  0  0
   49.4464   -5.7484   -7.2228 F   0  0  0  0  0  0  0  0  0  0  0  0
   49.4805   -3.5670   -7.6139 F   0  0  0  0  0  0  0  0  0  0  0  0
   56.3826   -3.4301   -6.8491 C   0  0  0  0  0  0  0  0  0  0  0  0
   55.7284   -4.7253   -7.4364 C   0  0  0  0  0  0  0  0  0  0  0  0
   56.4019   -5.8639   -6.7552 C   0  0  0  0  0  0  0  0  0  0  0  0
   56.0300   -4.7358   -8.8485 N   0  0  0  0  0  0  0  0  0  0  0  0
   57.1578   -4.9584   -9.2225 N   0  0  0  0  0  0  0  0  0  0  0  0
   57.9595   -5.1061  -10.2012 N   0  0  0  0  0  0  0  0  0  0  0  0
 12 13  1  0  0  0
 13 14  1  0  0  0
 13 15  1  0  0  0
 15 16  2  0  0  0
 16 17  2  0  0  0
 13  1  1  0  0  0
  1  2  2  0  0  0
  2  3  1  0  0  0
  3  4  2  0  0  0
  4  8  1  0  0  0
  8  9  1  0  0  0
  8 10  1  0  0  0
  8 11  1  0  0  0
  4  5  1  0  0  0
  5  6  2  0  0  0
  6  7  1  0  0  0
  6  1  1  0  0  0
M  CHG 1  16   1
M  CHG 1  17  -1
M  END
> <minimizedAffinity>
-7.01084

> <CNNscore>
0.3984397948

> <CNNaffinity>
5.3985981941

> <CNN_VS>
2.1510164738

> <CNNaffinity_variance>
0.2719353139

$$$$
[H]c1c([H])c(C(N=[N+]=[N-])(C([H])([H])[H])C([H])([H])[H])c(Cl)c([H])c1C(F)(F)F


 17 17  0  0  0  0  0  0  0  0999 V2000
   52.9977   -5.2452   -6.8469 C   0  0  0  0  0  0  0  0  0  0  0  0
   54.1272   -5.9768   -6.4222 C   0  0  0  0  0  0  0  0  0  0  0  0
   55.2803   -5.6857   -7.0953 C   0  0  0  0  0  0  0  0  0  0  0  0
   55.4494   -4.8132   -8.1081 C   0  0  0  0  0  0  0  0  0  0  0  0
   54.3054   -4.0896   -8.5284 C   0  0  0  0  0  0  0  0  0  0  0  0
   53.0901   -4.3278   -7.8738 C   0  0  0  0  0  0  0  0  0  0  0  0
   51.6527   -3.4414   -8.4198 Cl  0  0  0  0  0  0  0  0  0  0  0  0
   56.7412   -4.5232   -8.7839 C   0  0  0  0  0  0  0  0  0  0  0  0
   57.7962   -4.3971   -7.8826 F   0  0  0  0  0  0  0  0  0  0  0  0
   56.6517   -3.4507   -9.6075 F   0  0  0  0  0  0  0  0  0  0  0  0
   57.1379   -5.6129   -9.5721 F   0  0  0  0  0  0  0  0  0  0  0  0
   50.8389   -6.4457   -6.8767 C   0  0  0  0  0  0  0  0  0  0  0  0
   51.7089   -5.3897   -6.1164 C   0  0  0  0  0  0  0  0  0  0  0  0
   51.8492   -5.9047   -4.7275 C   0  0  0  0  0  0  0  0  0  0  0  0
   50.9580   -4.1563   -6.1209 N   0  0  0  0  0  0  0  0  0  0  0  0
   49.9180   -4.0814   -5.5091 N   0  0  0  0  0  0  0  0  0  0  0  0
   48.9273   -3.3655   -5.1508 N   0  0  0  0  0  0  0  0  0  0  0  0
 12 13  1  0  0  0
 13 14  1  0  0  0
 13 15  1  0  0  0
 15 16  2  0  0  0
 16 17  2  0  0  0
 13  1  1  0  0  0
  1  2  2  0  0  0
  2  3  1  0  0  0
  3  4  2  0  0  0
  4  8  1  0  0  0
  8  9  1  0  0  0
  8 10  1  0  0  0
  8 11  1  0  0  0
  4  5  1  0  0  0
  5  6  2  0  0  0
  6  7  1  0  0  0
  6  1  1  0  0  0
M  CHG 1  16   1
M  CHG 1  17  -1
M  END
> <minimizedAffinity>
-6.76329

> <CNNscore>
0.3914724588

> <CNNaffinity>
5.4815263748

> <CNN_VS>
2.1458666325

> <CNNaffinity_variance>
0.3291642070

$$$$
[H]c1c([H])c(C(N=[N+]=[N-])(C([H])([H])[H])C([H])([H])[H])c(Cl)c([H])c1C(F)(F)F


 17 17  0  0  0  0  0  0  0  0999 V2000
   54.1197   -4.5019   -7.5317 C   0  0  0  0  0  0  0  0  0  0  0  0
   52.9417   -3.8076   -7.8804 C   0  0  0  0  0  0  0  0  0  0  0  0
   51.8092   -4.2630   -7.2660 C   0  0  0  0  0  0  0  0  0  0  0  0
   51.6930   -5.2893   -6.4006 C   0  0  0  0  0  0  0  0  0  0  0  0
   52.8831   -5.9815   -6.0639 C   0  0  0  0  0  0  0  0  0  0  0  0
   54.0852   -5.5606   -6.6470 C   0  0  0  0  0  0  0  0  0  0  0  0
   55.5700   -6.4462   -6.2459 Cl  0  0  0  0  0  0  0  0  0  0  0  0
   50.4302   -5.7202   -5.7454 C   0  0  0  0  0  0  0  0  0  0  0  0
   50.6566   -6.4035   -4.5525 F   0  0  0  0  0  0  0  0  0  0  0  0
   49.6386   -6.4271   -6.5882 F   0  0  0  0  0  0  0  0  0  0  0  0
   49.6899   -4.6056   -5.3263 F   0  0  0  0  0  0  0  0  0  0  0  0
   55.1752   -2.7788   -8.9528 C   0  0  0  0  0  0  0  0  0  0  0  0
   55.4336   -4.0286   -8.0464 C   0  0  0  0  0  0  0  0  0  0  0  0
   56.3754   -3.5737   -6.9880 C   0  0  0  0  0  0  0  0  0  0  0  0
   56.0622   -5.0228   -8.8840 N   0  0  0  0  0  0  0  0  0  0  0  0
   57.0533   -4.7397   -9.5155 N   0  0  0  0  0  0  0  0  0  0  0  0
   57.9668   -5.1222  -10.3167 N   0  0  0  0  0  0  0  0  0  0  0  0
 12 13  1  0  0  0
 13 14  1  0  0  0
 13 15  1  0  0  0
 15 16  2  0  0  0
 16 17  2  0  0  0
 13  1  1  0  0  0
  1  2  2  0  0  0
  2  3  1  0  0  0
  3  4  2  0  0  0
  4  8  1  0  0  0
  8  9  1  0  0  0
  8 10  1  0  0  0
  8 11  1  0  0  0
  4  5  1  0  0  0
  5  6  2  0  0  0
  6  7  1  0  0  0
  6  1  1  0  0  0
M  CHG 1  16   1
M  CHG 1  17  -1
M  END
> <minimizedAffinity>
-6.70681

> <CNNscore>
0.3852243721

> <CNNaffinity>
5.3752608299

> <CNN_VS>
2.0706815720

> <CNNaffinity_variance>
0.2899135649

$$$$
[H]c1c([H])c(C([H])([H])OC([H])([H])C2([H])C([H])([H])C([H])([H])N(C([H])([H])C([H])([H])C([H])([H])C([H])([H])C([H])([H])[H])C([H])([H])C2([H])[H])c([H])c([H])c1F


 21 22  0  0  0  0  0  0  0  0999 V2000
   52.0649   -3.4395   -8.1823 N   0  0  0  0  0  0  0  0  0  0  0  0
   52.9782   -2.4983   -8.7003 C   0  0  0  0  0  0  0  0  0  0  0  0
   54.3386   -2.9787   -9.0317 C   0  0  0  0  0  0  0  0  0  0  0  0
   54.8912   -3.6779   -7.7955 C   0  0  0  0  0  0  0  0  0  0  0  0
   53.9893   -4.8759   -7.5936 C   0  0  0  0  0  0  0  0  0  0  0  0
   52.5508   -4.5517   -7.4784 C   0  0  0  0  0  0  0  0  0  0  0  0
   50.9988   -2.7300   -7.5234 C   0  0  0  0  0  0  0  0  0  0  0  0
   50.0006   -3.5991   -6.8455 C   0  0  0  0  0  0  0  0  0  0  0  0
   49.2223   -2.8507   -5.7934 C   0  0  0  0  0  0  0  0  0  0  0  0
   50.0440   -4.8303   -4.6030 C   0  0  0  0  0  0  0  0  0  0  0  0
   49.2789   -3.5384   -4.4536 C   0  0  0  0  0  0  0  0  0  0  0  0
   56.2951   -4.1805   -8.0353 C   0  0  0  0  0  0  0  0  0  0  0  0
   56.3171   -4.9987   -9.1664 O   0  0  0  0  0  0  0  0  0  0  0  0
   57.6074   -5.0391   -9.6880 C   0  0  0  0  0  0  0  0  0  0  0  0
   57.5600   -4.5291  -11.0926 C   0  0  0  0  0  0  0  0  0  0  0  0
   58.7208   -4.2607  -11.7954 C   0  0  0  0  0  0  0  0  0  0  0  0
   58.7042   -3.7894  -13.0922 C   0  0  0  0  0  0  0  0  0  0  0  0
   57.5074   -3.5666  -13.7415 C   0  0  0  0  0  0  0  0  0  0  0  0
   57.4634   -3.1007  -15.0242 F   0  0  0  0  0  0  0  0  0  0  0  0
   56.3465   -3.8321  -13.0463 C   0  0  0  0  0  0  0  0  0  0  0  0
   56.3615   -4.3075  -11.7382 C   0  0  0  0  0  0  0  0  0  0  0  0
 10 11  1  0  0  0
 11  9  1  0  0  0
  9  8  1  0  0  0
  8  7  1  0  0  0
  7  1  1  0  0  0
  1  2  1  0  0  0
  2  3  1  0  0  0
  3  4  1  0  0  0
  4 12  1  0  0  0
 12 13  1  0  0  0
 13 14  1  0  0  0
 14 15  1  0  0  0
 15 16  2  0  0  0
 16 17  1  0  0  0
 17 18  2  0  0  0
 18 19  1  0  0  0
 18 20  1  0  0  0
 20 21  2  0  0  0
  4  5  1  0  0  0
  5  6  1  0  0  0
  6  1  1  0  0  0
 21 15  1  0  0  0
M  END
> <minimizedAffinity>
-7.49423

> <CNNscore>
0.3868019581

> <CNNaffinity>
5.5887870789

> <CNN_VS>
2.1617538929

> <CNNaffinity_variance>
0.2188590020

$$$$
[H]c1c([H])c(C([H])([H])OC([H])([H])C2([H])C([H])([H])C([H])([H])N(C([H])([H])C([H])([H])C([H])([H])C([H])([H])C([H])([H])[H])C([H])([H])C2([H])[H])c([H])c([H])c1F


 21 22  0  0  0  0  0  0  0  0999 V2000
   55.8141   -3.9481   -9.8030 N   0  0  0  0  0  0  0  0  0  0  0  0
   54.4362   -3.6911   -9.6495 C   0  0  0  0  0  0  0  0  0  0  0  0
   53.8885   -3.7054   -8.2743 C   0  0  0  0  0  0  0  0  0  0  0  0
   54.2886   -5.0301   -7.6359 C   0  0  0  0  0  0  0  0  0  0  0  0
   55.7987   -4.9804   -7.5563 C   0  0  0  0  0  0  0  0  0  0  0  0
   56.4760   -4.7347   -8.8482 C   0  0  0  0  0  0  0  0  0  0  0  0
   56.0606   -4.3282  -11.1701 C   0  0  0  0  0  0  0  0  0  0  0  0
   57.4870   -4.2632  -11.5851 C   0  0  0  0  0  0  0  0  0  0  0  0
   57.6347   -3.9421  -13.0507 C   0  0  0  0  0  0  0  0  0  0  0  0
   56.1618   -4.5530  -14.9131 C   0  0  0  0  0  0  0  0  0  0  0  0
   56.3057   -3.6621  -13.7039 C   0  0  0  0  0  0  0  0  0  0  0  0
   53.7465   -5.1438   -6.2307 C   0  0  0  0  0  0  0  0  0  0  0  0
   52.7955   -6.1643   -6.1725 O   0  0  0  0  0  0  0  0  0  0  0  0
   51.7621   -5.8905   -7.0645 C   0  0  0  0  0  0  0  0  0  0  0  0
   50.8599   -4.8764   -6.4377 C   0  0  0  0  0  0  0  0  0  0  0  0
   50.3951   -5.0348   -5.1446 C   0  0  0  0  0  0  0  0  0  0  0  0
   49.5618   -4.1137   -4.5435 C   0  0  0  0  0  0  0  0  0  0  0  0
   49.1579   -2.9844   -5.2255 C   0  0  0  0  0  0  0  0  0  0  0  0
   48.3339   -2.0578   -4.6537 F   0  0  0  0  0  0  0  0  0  0  0  0
   49.6177   -2.8205   -6.5152 C   0  0  0  0  0  0  0  0  0  0  0  0
   50.4583   -3.7487   -7.1229 C   0  0  0  0  0  0  0  0  0  0  0  0
 10 11  1  0  0  0
 11  9  1  0  0  0
  9  8  1  0  0  0
  8  7  1  0  0  0
  7  1  1  0  0  0
  1  2  1  0  0  0
  2  3  1  0  0  0
  3  4  1  0  0  0
  4 12  1  0  0  0
 12 13  1  0  0  0
 13 14  1  0  0  0
 14 15  1  0  0  0
 15 16  2  0  0  0
 16 17  1  0  0  0
 17 18  2  0  0  0
 18 19  1  0  0  0
 18 20  1  0  0  0
 20 21  2  0  0  0
  4  5  1  0  0  0
  5  6  1  0  0  0
  6  1  1  0  0  0
 21 15  1  0  0  0
M  END
> <minimizedAffinity>
-8.05258

> <CNNscore>
0.2939884365

> <CNNaffinity>
5.6764130592

> <CNN_VS>
1.6687997580

> <CNNaffinity_variance>
0.1843045652

$$$$
[H]c1c([H])c(C([H])([H])OC([H])([H])C2([H])C([H])([H])C([H])([H])N(C([H])([H])C([H])([H])C([H])([H])C([H])([H])C([H])([H])[H])C([H])([H])C2([H])[H])c([H])c([H])c1F


 21 22  0  0  0  0  0  0  0  0999 V2000
   57.1687   -5.2546   -8.8658 N   0  0  0  0  0  0  0  0  0  0  0  0
   56.4735   -4.9639   -7.6739 C   0  0  0  0  0  0  0  0  0  0  0  0
   55.0619   -4.5351   -7.7947 C   0  0  0  0  0  0  0  0  0  0  0  0
   55.0207   -3.3649   -8.7702 C   0  0  0  0  0  0  0  0  0  0  0  0
   55.4654   -3.9488  -10.0933 C   0  0  0  0  0  0  0  0  0  0  0  0
   56.7809   -4.6242  -10.0576 C   0  0  0  0  0  0  0  0  0  0  0  0
   58.5825   -5.2104   -8.5950 C   0  0  0  0  0  0  0  0  0  0  0  0
   59.4162   -6.0333   -9.5108 C   0  0  0  0  0  0  0  0  0  0  0  0
   60.7689   -6.3407   -8.9203 C   0  0  0  0  0  0  0  0  0  0  0  0
   62.3995   -6.8676  -10.6737 C   0  0  0  0  0  0  0  0  0  0  0  0
   61.4624   -7.4615   -9.6511 C   0  0  0  0  0  0  0  0  0  0  0  0
   53.6133   -2.8422   -8.9354 C   0  0  0  0  0  0  0  0  0  0  0  0
   52.7847   -3.4002   -7.9600 O   0  0  0  0  0  0  0  0  0  0  0  0
   51.5062   -2.8598   -8.0690 C   0  0  0  0  0  0  0  0  0  0  0  0
   50.7332   -3.2373   -6.8462 C   0  0  0  0  0  0  0  0  0  0  0  0
   49.6846   -2.4570   -6.3939 C   0  0  0  0  0  0  0  0  0  0  0  0
   48.9557   -2.7834   -5.2686 C   0  0  0  0  0  0  0  0  0  0  0  0
   49.2551   -3.9194   -4.5450 C   0  0  0  0  0  0  0  0  0  0  0  0
   48.5496   -4.2647   -3.4282 F   0  0  0  0  0  0  0  0  0  0  0  0
   50.2995   -4.7016   -4.9906 C   0  0  0  0  0  0  0  0  0  0  0  0
   51.0357   -4.3738   -6.1256 C   0  0  0  0  0  0  0  0  0  0  0  0
 10 11  1  0  0  0
 11  9  1  0  0  0
  9  8  1  0  0  0
  8  7  1  0  0  0
  7  1  1  0  0  0
  1  2  1  0  0  0
  2  3  1  0  0  0
  3  4  1  0  0  0
  4 12  1  0  0  0
 12 13  1  0  0  0
 13 14  1  0  0  0
 14 15  1  0  0  0
 15 16  2  0  0  0
 16 17  1  0  0  0
 17 18  2  0  0  0
 18 19  1  0  0  0
 18 20  1  0  0  0
 20 21  2  0  0  0
  4  5  1  0  0  0
  5  6  1  0  0  0
  6  1  1  0  0  0
 21 15  1  0  0  0
M  END
> <minimizedAffinity>
-7.83216

> <CNNscore>
0.2456514686

> <CNNaffinity>
5.1190481186

> <CNN_VS>
1.2575017214

> <CNNaffinity_variance>
0.2979892790

$$$$
[H]c1c([H])c(C([H])([H])OC([H])([H])C2([H])C([H])([H])C([H])([H])N(C([H])([H])C([H])([H])C([H])([H])C([H])([H])C([H])([H])[H])C([H])([H])C2([H])[H])c([H])c([H])c1F


 21 22  0  0  0  0  0  0  0  0999 V2000
   52.8089   -4.6983   -6.8585 N   0  0  0  0  0  0  0  0  0  0  0  0
   53.8648   -5.5525   -6.4793 C   0  0  0  0  0  0  0  0  0  0  0  0
   55.2449   -5.0983   -6.7626 C   0  0  0  0  0  0  0  0  0  0  0  0
   55.3144   -4.7399   -8.2423 C   0  0  0  0  0  0  0  0  0  0  0  0
   54.3748   -3.5645   -8.3997 C   0  0  0  0  0  0  0  0  0  0  0  0
   52.9942   -3.8122   -7.9303 C   0  0  0  0  0  0  0  0  0  0  0  0
   51.5941   -5.4695   -6.9194 C   0  0  0  0  0  0  0  0  0  0  0  0
   50.7680   -5.4253   -5.6838 C   0  0  0  0  0  0  0  0  0  0  0  0
   49.9977   -4.1348   -5.5653 C   0  0  0  0  0  0  0  0  0  0  0  0
   49.9269   -2.1262   -6.9694 C   0  0  0  0  0  0  0  0  0  0  0  0
   49.5890   -3.5957   -6.9119 C   0  0  0  0  0  0  0  0  0  0  0  0
   56.7027   -4.2881   -8.6291 C   0  0  0  0  0  0  0  0  0  0  0  0
   57.0810   -4.8974   -9.8270 O   0  0  0  0  0  0  0  0  0  0  0  0
   56.2165   -4.5029  -10.8446 C   0  0  0  0  0  0  0  0  0  0  0  0
   57.0369   -4.1410  -12.0409 C   0  0  0  0  0  0  0  0  0  0  0  0
   58.4158   -4.0634  -11.9655 C   0  0  0  0  0  0  0  0  0  0  0  0
   59.1954   -3.7315  -13.0546 C   0  0  0  0  0  0  0  0  0  0  0  0
   58.6139   -3.4614  -14.2763 C   0  0  0  0  0  0  0  0  0  0  0  0
   59.3626   -3.1307  -15.3692 F   0  0  0  0  0  0  0  0  0  0  0  0
   57.2395   -3.5369  -14.3582 C   0  0  0  0  0  0  0  0  0  0  0  0
   56.4517   -3.8716  -13.2605 C   0  0  0  0  0  0  0  0  0  0  0  0
 10 11  1  0  0  0
 11  9  1  0  0  0
  9  8  1  0  0  0
  8  7  1  0  0  0
  7  1  1  0  0  0
  1  2  1  0  0  0
  2  3  1  0  0  0
  3  4  1  0  0  0
  4 12  1  0  0  0
 12 13  1  0  0  0
 13 14  1  0  0  0
 14 15  1  0  0  0
 15 16  2  0  0  0
 16 17  1  0  0  0
 17 18  2  0  0  0
 18 19  1  0  0  0
 18 20  1  0  0  0
 20 21  2  0  0  0
  4  5  1  0  0  0
  5  6  1  0  0  0
  6  1  1  0  0  0
 21 15  1  0  0  0
M  END
> <minimizedAffinity>
-6.74972

> <CNNscore>
0.2004053593

> <CNNaffinity>
5.2130098343

> <CNN_VS>
1.0447151661

> <CNNaffinity_variance>
0.2869146466

$$$$
[H]c1c([H])c(C([H])([H])OC([H])([H])C2([H])C([H])([H])C([H])([H])N(C([H])([H])C([H])([H])C([H])([H])C([H])([H])C([H])([H])[H])C([H])([H])C2([H])[H])c([H])c([H])c1F


 21 22  0  0  0  0  0  0  0  0999 V2000
   51.3914   -3.3285   -8.0214 N   0  0  0  0  0  0  0  0  0  0  0  0
   52.2715   -2.4183   -8.6422 C   0  0  0  0  0  0  0  0  0  0  0  0
   53.5392   -2.9570   -9.1843 C   0  0  0  0  0  0  0  0  0  0  0  0
   54.2256   -3.7282   -8.0633 C   0  0  0  0  0  0  0  0  0  0  0  0
   53.2960   -4.8838   -7.7637 C   0  0  0  0  0  0  0  0  0  0  0  0
   51.9105   -4.4891   -7.4282 C   0  0  0  0  0  0  0  0  0  0  0  0
   50.4751   -2.5883   -7.1927 C   0  0  0  0  0  0  0  0  0  0  0  0
   50.0068   -3.3145   -5.9826 C   0  0  0  0  0  0  0  0  0  0  0  0
   48.8632   -2.6037   -5.3046 C   0  0  0  0  0  0  0  0  0  0  0  0
   49.3115   -4.4216   -3.7217 C   0  0  0  0  0  0  0  0  0  0  0  0
   48.2814   -3.4176   -4.1775 C   0  0  0  0  0  0  0  0  0  0  0  0
   55.5485   -4.2947   -8.5218 C   0  0  0  0  0  0  0  0  0  0  0  0
   56.4777   -4.2254   -7.4821 O   0  0  0  0  0  0  0  0  0  0  0  0
   56.8604   -5.5118   -7.1118 C   0  0  0  0  0  0  0  0  0  0  0  0
   56.1010   -5.8893   -5.8805 C   0  0  0  0  0  0  0  0  0  0  0  0
   55.5904   -7.1645   -5.7181 C   0  0  0  0  0  0  0  0  0  0  0  0
   54.8863   -7.5379   -4.5917 C   0  0  0  0  0  0  0  0  0  0  0  0
   54.6647   -6.6347   -3.5724 C   0  0  0  0  0  0  0  0  0  0  0  0
   53.9712   -6.9788   -2.4477 F   0  0  0  0  0  0  0  0  0  0  0  0
   55.1711   -5.3616   -3.7282 C   0  0  0  0  0  0  0  0  0  0  0  0
   55.8816   -4.9834   -4.8638 C   0  0  0  0  0  0  0  0  0  0  0  0
 10 11  1  0  0  0
 11  9  1  0  0  0
  9  8  1  0  0  0
  8  7  1  0  0  0
  7  1  1  0  0  0
  1  2  1  0  0  0
  2  3  1  0  0  0
  3  4  1  0  0  0
  4 12  1  0  0  0
 12 13  1  0  0  0
 13 14  1  0  0  0
 14 15  1  0  0  0
 15 16  2  0  0  0
 16 17  1  0  0  0
 17 18  2  0  0  0
 18 19  1  0  0  0
 18 20  1  0  0  0
 20 21  2  0  0  0
  4  5  1  0  0  0
  5  6  1  0  0  0
  6  1  1  0  0  0
 21 15  1  0  0  0
M  END
> <minimizedAffinity>
-7.11432

> <CNNscore>
0.1883545667

> <CNNaffinity>
5.6532969475

> <CNN_VS>
1.0648243427

> <CNNaffinity_variance>
0.2064017504

$$$$
[H]c1c([H])c(C([H])([H])OC([H])([H])C2([H])C([H])([H])C([H])([H])N(C([H])([H])C([H])([H])C([H])([H])C([H])([H])C([H])([H])[H])C([H])([H])C2([H])[H])c([H])c([H])c1F


 21 22  0  0  0  0  0  0  0  0999 V2000
   53.3335   -6.1847   -3.4470 N   0  0  0  0  0  0  0  0  0  0  0  0
   53.9205   -7.3467   -2.9053 C   0  0  0  0  0  0  0  0  0  0  0  0
   55.3981   -7.3921   -2.8281 C   0  0  0  0  0  0  0  0  0  0  0  0
   55.9391   -7.0842   -4.2191 C   0  0  0  0  0  0  0  0  0  0  0  0
   55.5111   -5.6591   -4.4936 C   0  0  0  0  0  0  0  0  0  0  0  0
   54.0565   -5.4189   -4.3740 C   0  0  0  0  0  0  0  0  0  0  0  0
   51.9848   -6.4949   -3.8456 C   0  0  0  0  0  0  0  0  0  0  0  0
   51.1458   -5.3113   -4.1715 C   0  0  0  0  0  0  0  0  0  0  0  0
   50.4458   -5.4632   -5.4981 C   0  0  0  0  0  0  0  0  0  0  0  0
   49.6178   -3.1920   -5.9071 C   0  0  0  0  0  0  0  0  0  0  0  0
   50.6038   -4.2392   -6.3630 C   0  0  0  0  0  0  0  0  0  0  0  0
   57.4484   -7.1350   -4.2406 C   0  0  0  0  0  0  0  0  0  0  0  0
   57.9539   -6.6735   -3.0238 O   0  0  0  0  0  0  0  0  0  0  0  0
   59.2649   -7.1148   -2.8656 C   0  0  0  0  0  0  0  0  0  0  0  0
   59.2277   -8.4925   -2.2861 C   0  0  0  0  0  0  0  0  0  0  0  0
   59.9153   -9.5362   -2.8785 C   0  0  0  0  0  0  0  0  0  0  0  0
   59.8971  -10.8164   -2.3637 C   0  0  0  0  0  0  0  0  0  0  0  0
   59.1793  -11.1017   -1.2205 C   0  0  0  0  0  0  0  0  0  0  0  0
   59.1449  -12.3597   -0.6908 F   0  0  0  0  0  0  0  0  0  0  0  0
   58.4915  -10.0655   -0.6250 C   0  0  0  0  0  0  0  0  0  0  0  0
   58.5088   -8.7737   -1.1430 C   0  0  0  0  0  0  0  0  0  0  0  0
 10 11  1  0  0  0
 11  9  1  0  0  0
  9  8  1  0  0  0
  8  7  1  0  0  0
  7  1  1  0  0  0
  1  2  1  0  0  0
  2  3  1  0  0  0
  3  4  1  0  0  0
  4 12  1  0  0  0
 12 13  1  0  0  0
 13 14  1  0  0  0
 14 15  1  0  0  0
 15 16  2  0  0  0
 16 17  1  0  0  0
 17 18  2  0  0  0
 18 19  1  0  0  0
 18 20  1  0  0  0
 20 21  2  0  0  0
  4  5  1  0  0  0
  5  6  1  0  0  0
  6  1  1  0  0  0
 21 15  1  0  0  0
M  END
> <minimizedAffinity>
-4.70374

> <CNNscore>
0.1787258834

> <CNNaffinity>
4.8730006218

> <CNN_VS>
0.8709313273

> <CNNaffinity_variance>
0.0334411934

$$$$
[H]c1c([H])c(C([H])([H])OC([H])([H])C2([H])C([H])([H])C([H])([H])N(C([H])([H])C([H])([H])C([H])([H])C([H])([H])C([H])([H])[H])C([H])([H])C2([H])[H])c([H])c([H])c1F


 21 22  0  0  0  0  0  0  0  0999 V2000
   51.2724   -5.7839   -5.5402 N   0  0  0  0  0  0  0  0  0  0  0  0
   51.8488   -5.8353   -6.8261 C   0  0  0  0  0  0  0  0  0  0  0  0
   53.1473   -6.5325   -6.9641 C   0  0  0  0  0  0  0  0  0  0  0  0
   54.1029   -5.9276   -5.9426 C   0  0  0  0  0  0  0  0  0  0  0  0
   53.5042   -6.2787   -4.5981 C   0  0  0  0  0  0  0  0  0  0  0  0
   52.1051   -5.8361   -4.4123 C   0  0  0  0  0  0  0  0  0  0  0  0
   50.2950   -4.7263   -5.5173 C   0  0  0  0  0  0  0  0  0  0  0  0
   50.1002   -4.0326   -6.8180 C   0  0  0  0  0  0  0  0  0  0  0  0
   49.8249   -2.5614   -6.6378 C   0  0  0  0  0  0  0  0  0  0  0  0
   51.6829   -2.4968   -8.2362 C   0  0  0  0  0  0  0  0  0  0  0  0
   50.5049   -1.7266   -7.6922 C   0  0  0  0  0  0  0  0  0  0  0  0
   55.4694   -6.5647   -6.0304 C   0  0  0  0  0  0  0  0  0  0  0  0
   56.4453   -5.5740   -6.1547 O   0  0  0  0  0  0  0  0  0  0  0  0
   55.9297   -4.4986   -6.8731 C   0  0  0  0  0  0  0  0  0  0  0  0
   56.4634   -4.5692   -8.2679 C   0  0  0  0  0  0  0  0  0  0  0  0
   55.7447   -4.0615   -9.3351 C   0  0  0  0  0  0  0  0  0  0  0  0
   56.2149   -4.1143  -10.6313 C   0  0  0  0  0  0  0  0  0  0  0  0
   57.4395   -4.6857  -10.9098 C   0  0  0  0  0  0  0  0  0  0  0  0
   57.9274   -4.7505  -12.1834 F   0  0  0  0  0  0  0  0  0  0  0  0
   58.1610   -5.1938   -9.8502 C   0  0  0  0  0  0  0  0  0  0  0  0
   57.6881   -5.1413   -8.5421 C   0  0  0  0  0  0  0  0  0  0  0  0
 10 11  1  0  0  0
 11  9  1  0  0  0
  9  8  1  0  0  0
  8  7  1  0  0  0
  7  1  1  0  0  0
  1  2  1  0  0  0
  2  3  1  0  0  0
  3  4  1  0  0  0
  4 12  1  0  0  0
 12 13  1  0  0  0
 13 14  1  0  0  0
 14 15  1  0  0  0
 15 16  2  0  0  0
 16 17  1  0  0  0
 17 18  2  0  0  0
 18 19  1  0  0  0
 18 20  1  0  0  0
 20 21  2  0  0  0
  4  5  1  0  0  0
  5  6  1  0  0  0
  6  1  1  0  0  0
 21 15  1  0  0  0
M  END
> <minimizedAffinity>
-7.68533

> <CNNscore>
0.1737872064

> <CNNaffinity>
5.4837141037

> <CNN_VS>
0.9529993534

> <CNNaffinity_variance>
0.2454136610

$$$$
[H]c1c([H])c(C([H])([H])OC([H])([H])C2([H])C([H])([H])C([H])([H])N(C([H])([H])C([H])([H])C([H])([H])C([H])([H])C([H])([H])[H])C([H])([H])C2([H])[H])c([H])c([H])c1F


 21 22  0  0  0  0  0  0  0  0999 V2000
   55.3283   -7.0614   -3.0351 N   0  0  0  0  0  0  0  0  0  0  0  0
   55.0163   -7.9278   -4.1030 C   0  0  0  0  0  0  0  0  0  0  0  0
   55.2826   -7.4420   -5.4757 C   0  0  0  0  0  0  0  0  0  0  0  0
   54.5917   -6.0920   -5.6259 C   0  0  0  0  0  0  0  0  0  0  0  0
   55.2996   -5.1842   -4.6440 C   0  0  0  0  0  0  0  0  0  0  0  0
   55.3103   -5.6749   -3.2486 C   0  0  0  0  0  0  0  0  0  0  0  0
   54.6115   -7.4987   -1.8650 C   0  0  0  0  0  0  0  0  0  0  0  0
   53.3946   -8.3051   -2.1474 C   0  0  0  0  0  0  0  0  0  0  0  0
   52.1352   -7.5968   -1.7172 C   0  0  0  0  0  0  0  0  0  0  0  0
   51.7028   -5.2346   -2.2117 C   0  0  0  0  0  0  0  0  0  0  0  0
   51.6410   -6.6359   -2.7678 C   0  0  0  0  0  0  0  0  0  0  0  0
   54.7893   -5.5298   -7.0137 C   0  0  0  0  0  0  0  0  0  0  0  0
   53.9877   -4.3994   -7.1839 O   0  0  0  0  0  0  0  0  0  0  0  0
   52.8220   -4.7513   -7.8590 C   0  0  0  0  0  0  0  0  0  0  0  0
   51.6618   -4.1469   -7.1352 C   0  0  0  0  0  0  0  0  0  0  0  0
   51.0784   -2.9722   -7.5742 C   0  0  0  0  0  0  0  0  0  0  0  0
   50.0072   -2.3941   -6.9242 C   0  0  0  0  0  0  0  0  0  0  0  0
   49.4738   -2.9801   -5.7947 C   0  0  0  0  0  0  0  0  0  0  0  0
   48.4144   -2.4285   -5.1331 F   0  0  0  0  0  0  0  0  0  0  0  0
   50.0510   -4.1514   -5.3517 C   0  0  0  0  0  0  0  0  0  0  0  0
   51.1315   -4.7358   -6.0062 C   0  0  0  0  0  0  0  0  0  0  0  0
 10 11  1  0  0  0
 11  9  1  0  0  0
  9  8  1  0  0  0
  8  7  1  0  0  0
  7  1  1  0  0  0
  1  2  1  0  0  0
  2  3  1  0  0  0
  3  4  1  0  0  0
  4 12  1  0  0  0
 12 13  1  0  0  0
 13 14  1  0  0  0
 14 15  1  0  0  0
 15 16  2  0  0  0
 16 17  1  0  0  0
 17 18  2  0  0  0
 18 19  1  0  0  0
 18 20  1  0  0  0
 20 21  2  0  0  0
  4  5  1  0  0  0
  5  6  1  0  0  0
  6  1  1  0  0  0
 21 15  1  0  0  0
M  END
> <minimizedAffinity>
-7.12361

> <CNNscore>
0.1630989462

> <CNNaffinity>
5.1070222855

> <CNN_VS>
0.8329499364

> <CNNaffinity_variance>
0.6473457217

$$$$
[H]c1c([H])c(C([H])([H])OC([H])([H])C2([H])C([H])([H])C([H])([H])N(C([H])([H])C([H])([H])C([H])([H])C([H])([H])C([H])([H])[H])C([H])([H])C2([H])[H])c([H])c([H])c1F


 21 22  0  0  0  0  0  0  0  0999 V2000
   53.4572   -4.3403   -7.7208 N   0  0  0  0  0  0  0  0  0  0  0  0
   54.6764   -4.7691   -7.1568 C   0  0  0  0  0  0  0  0  0  0  0  0
   55.9260   -4.3187   -7.8101 C   0  0  0  0  0  0  0  0  0  0  0  0
   55.8289   -4.6851   -9.2862 C   0  0  0  0  0  0  0  0  0  0  0  0
   54.6788   -3.8563   -9.8152 C   0  0  0  0  0  0  0  0  0  0  0  0
   53.4027   -4.0396   -9.0901 C   0  0  0  0  0  0  0  0  0  0  0  0
   52.4055   -5.2062   -7.2533 C   0  0  0  0  0  0  0  0  0  0  0  0
   51.7604   -4.7713   -5.9861 C   0  0  0  0  0  0  0  0  0  0  0  0
   50.3833   -4.2039   -6.2192 C   0  0  0  0  0  0  0  0  0  0  0  0
   48.8279   -2.6654   -5.1125 C   0  0  0  0  0  0  0  0  0  0  0  0
   49.6704   -3.9032   -4.9259 C   0  0  0  0  0  0  0  0  0  0  0  0
   57.0801   -4.2838  -10.0309 C   0  0  0  0  0  0  0  0  0  0  0  0
   56.9070   -4.5047  -11.3986 O   0  0  0  0  0  0  0  0  0  0  0  0
   57.7045   -3.6195  -12.1189 C   0  0  0  0  0  0  0  0  0  0  0  0
   57.3947   -3.7873  -13.5718 C   0  0  0  0  0  0  0  0  0  0  0  0
   56.3066   -4.5321  -13.9896 C   0  0  0  0  0  0  0  0  0  0  0  0
   55.9992   -4.7023  -15.3240 C   0  0  0  0  0  0  0  0  0  0  0  0
   56.7817   -4.1243  -16.3025 C   0  0  0  0  0  0  0  0  0  0  0  0
   56.4993   -4.2772  -17.6296 F   0  0  0  0  0  0  0  0  0  0  0  0
   57.8680   -3.3804  -15.8926 C   0  0  0  0  0  0  0  0  0  0  0  0
   58.1794   -3.2079  -14.5470 C   0  0  0  0  0  0  0  0  0  0  0  0
 10 11  1  0  0  0
 11  9  1  0  0  0
  9  8  1  0  0  0
  8  7  1  0  0  0
  7  1  1  0  0  0
  1  2  1  0  0  0
  2  3  1  0  0  0
  3  4  1  0  0  0
  4 12  1  0  0  0
 12 13  1  0  0  0
 13 14  1  0  0  0
 14 15  1  0  0  0
 15 16  2  0  0  0
 16 17  1  0  0  0
 17 18  2  0  0  0
 18 19  1  0  0  0
 18 20  1  0  0  0
 20 21  2  0  0  0
  4  5  1  0  0  0
  5  6  1  0  0  0
  6  1  1  0  0  0
 21 15  1  0  0  0
M  END
> <minimizedAffinity>
-6.74516

> <CNNscore>
0.1576118171

> <CNNaffinity>
5.2031936646

> <CNN_VS>
0.8200848103

> <CNNaffinity_variance>
0.0760970637

$$$$
[H]c1c([H])c([H])c([C@@]2([H])C([H])([H])[C@]2([H])N([H])C([H])([H])C2([H])C([H])([H])C([H])([H])N([H])C([H])([H])C2([H])[H])c([H])c1[H]


 19 21  0  0  0  0  0  0  0  0999 V2000
   54.2595   -6.5416   -4.8810 N   0  0  0  0  0  0  0  0  0  0  0  0
   55.2041   -6.7815   -5.2219 H   0  0  0  0  0  0  0  0  0  0  0  0
   52.1647   -5.8177   -6.1465 C   0  0  0  0  0  0  0  0  0  0  0  0
   53.3059   -6.1257   -7.1207 C   0  0  0  0  0  0  0  0  0  0  0  0
   53.5619   -5.5799   -5.7119 C   0  0  0  0  0  0  0  0  0  0  0  0
   49.8551   -2.2655   -6.9128 C   0  0  0  0  0  0  0  0  0  0  0  0
   50.9586   -2.5891   -7.6737 C   0  0  0  0  0  0  0  0  0  0  0  0
   51.6921   -3.7463   -7.4065 C   0  0  0  0  0  0  0  0  0  0  0  0
   51.3516   -4.6017   -6.3881 C   0  0  0  0  0  0  0  0  0  0  0  0
   50.2467   -4.2718   -5.6312 C   0  0  0  0  0  0  0  0  0  0  0  0
   49.5109   -3.1197   -5.8919 C   0  0  0  0  0  0  0  0  0  0  0  0
   54.2559   -6.0080   -3.5346 C   0  0  0  0  0  0  0  0  0  0  0  0
   53.6805   -6.9499   -2.5184 C   0  0  0  0  0  0  0  0  0  0  0  0
   52.1827   -6.8386   -2.5399 C   0  0  0  0  0  0  0  0  0  0  0  0
   51.6507   -5.5255   -2.0657 C   0  0  0  0  0  0  0  0  0  0  0  0
   52.5822   -4.8142   -1.2076 N   0  0  0  0  0  0  0  0  0  0  0  0
   53.1723   -5.8391   -0.3329 C   0  0  0  0  0  0  0  0  0  0  0  0
   54.2423   -6.5334   -1.1634 C   0  0  0  0  0  0  0  0  0  0  0  0
   52.0786   -4.1009   -0.6706 H   0  0  0  0  0  0  0  0  0  0  0  0
  6  7  2  0  0  0
  7  8  1  0  0  0
  8  9  2  0  0  0
  9  3  1  0  0  0
  3  4  1  0  0  0
  4  5  1  0  0  0
  5  1  1  0  0  0
  1 12  1  0  0  0
 12 13  1  0  0  0
 13 14  1  0  0  0
 14 15  1  0  0  0
 15 16  1  0  0  0
 16 17  1  0  0  0
 17 18  1  0  0  0
  9 10  1  0  0  0
 10 11  2  0  0  0
 11  6  1  0  0  0
  5  3  1  0  0  0
 18 13  1  0  0  0
  1  2  1  0  0  0
 16 19  1  0  0  0
M  END
> <minimizedAffinity>
-7.55119

> <CNNscore>
0.1983481795

> <CNNaffinity>
4.8898506165

> <CNN_VS>
0.9698929787

> <CNNaffinity_variance>
0.2548962235

$$$$
[H]c1c([H])c([H])c([C@@]2([H])C([H])([H])[C@]2([H])N([H])C([H])([H])C2([H])C([H])([H])C([H])([H])N([H])C([H])([H])C2([H])[H])c([H])c1[H]


 19 21  0  0  0  0  0  0  0  0999 V2000
   53.9779   -6.5338   -4.8602 N   0  0  0  0  0  0  0  0  0  0  0  0
   54.6744   -6.8905   -5.5337 H   0  0  0  0  0  0  0  0  0  0  0  0
   51.6380   -5.8772   -5.6399 C   0  0  0  0  0  0  0  0  0  0  0  0
   52.6040   -5.9468   -6.8266 C   0  0  0  0  0  0  0  0  0  0  0  0
   53.0679   -5.5536   -5.4201 C   0  0  0  0  0  0  0  0  0  0  0  0
   48.8919   -2.5726   -5.3612 C   0  0  0  0  0  0  0  0  0  0  0  0
   48.9897   -3.5181   -4.3624 C   0  0  0  0  0  0  0  0  0  0  0  0
   49.8875   -4.5810   -4.4748 C   0  0  0  0  0  0  0  0  0  0  0  0
   50.7018   -4.7297   -5.5701 C   0  0  0  0  0  0  0  0  0  0  0  0
   50.5987   -3.7802   -6.5652 C   0  0  0  0  0  0  0  0  0  0  0  0
   49.7057   -2.7180   -6.4598 C   0  0  0  0  0  0  0  0  0  0  0  0
   54.5743   -5.9261   -3.6886 C   0  0  0  0  0  0  0  0  0  0  0  0
   54.3558   -6.7118   -2.4293 C   0  0  0  0  0  0  0  0  0  0  0  0
   52.8931   -6.6934   -2.0878 C   0  0  0  0  0  0  0  0  0  0  0  0
   52.3630   -5.3517   -1.6992 C   0  0  0  0  0  0  0  0  0  0  0  0
   53.3979   -4.4507   -1.2227 N   0  0  0  0  0  0  0  0  0  0  0  0
   54.2793   -5.2743   -0.3808 C   0  0  0  0  0  0  0  0  0  0  0  0
   55.1821   -6.0372   -1.3398 C   0  0  0  0  0  0  0  0  0  0  0  0
   52.9698   -3.6865   -0.6904 H   0  0  0  0  0  0  0  0  0  0  0  0
  6  7  2  0  0  0
  7  8  1  0  0  0
  8  9  2  0  0  0
  9  3  1  0  0  0
  3  4  1  0  0  0
  4  5  1  0  0  0
  5  1  1  0  0  0
  1 12  1  0  0  0
 12 13  1  0  0  0
 13 14  1  0  0  0
 14 15  1  0  0  0
 15 16  1  0  0  0
 16 17  1  0  0  0
 17 18  1  0  0  0
  9 10  1  0  0  0
 10 11  2  0  0  0
 11  6  1  0  0  0
  5  3  1  0  0  0
 18 13  1  0  0  0
  1  2  1  0  0  0
 16 19  1  0  0  0
M  END
> <minimizedAffinity>
-7.48652

> <CNNscore>
0.1966867000

> <CNNaffinity>
4.7287073135

> <CNN_VS>
0.9300738573

> <CNNaffinity_variance>
0.4118846953

$$$$
[H]c1c([H])c([H])c([C@@]2([H])C([H])([H])[C@]2([H])N([H])C([H])([H])C2([H])C([H])([H])C([H])([H])N([H])C([H])([H])C2([H])[H])c([H])c1[H]


 19 21  0  0  0  0  0  0  0  0999 V2000
   54.6937   -5.7626   -5.5861 N   0  0  0  0  0  0  0  0  0  0  0  0
   53.7173   -5.9463   -5.3052 H   0  0  0  0  0  0  0  0  0  0  0  0
   55.4439   -4.3250   -7.5569 C   0  0  0  0  0  0  0  0  0  0  0  0
   53.9233   -4.5098   -7.5699 C   0  0  0  0  0  0  0  0  0  0  0  0
   54.8696   -5.5789   -7.0134 C   0  0  0  0  0  0  0  0  0  0  0  0
   57.6254   -4.7423  -11.2456 C   0  0  0  0  0  0  0  0  0  0  0  0
   58.1466   -5.1736  -10.0441 C   0  0  0  0  0  0  0  0  0  0  0  0
   57.4208   -5.0278   -8.8607 C   0  0  0  0  0  0  0  0  0  0  0  0
   56.1726   -4.4563   -8.8414 C   0  0  0  0  0  0  0  0  0  0  0  0
   55.6575   -4.0272  -10.0467 C   0  0  0  0  0  0  0  0  0  0  0  0
   56.3758   -4.1693  -11.2303 C   0  0  0  0  0  0  0  0  0  0  0  0
   55.6107   -6.8095   -5.1852 C   0  0  0  0  0  0  0  0  0  0  0  0
   56.3613   -6.4979   -3.9242 C   0  0  0  0  0  0  0  0  0  0  0  0
   56.1097   -7.5883   -2.9221 C   0  0  0  0  0  0  0  0  0  0  0  0
   54.7033   -7.6608   -2.4231 C   0  0  0  0  0  0  0  0  0  0  0  0
   53.9853   -6.4067   -2.5705 N   0  0  0  0  0  0  0  0  0  0  0  0
   54.9475   -5.3570   -2.2013 C   0  0  0  0  0  0  0  0  0  0  0  0
   55.8381   -5.1576   -3.4194 C   0  0  0  0  0  0  0  0  0  0  0  0
   53.1665   -6.4052   -1.9538 H   0  0  0  0  0  0  0  0  0  0  0  0
  6  7  2  0  0  0
  7  8  1  0  0  0
  8  9  2  0  0  0
  9  3  1  0  0  0
  3  4  1  0  0  0
  4  5  1  0  0  0
  5  1  1  0  0  0
  1 12  1  0  0  0
 12 13  1  0  0  0
 13 14  1  0  0  0
 14 15  1  0  0  0
 15 16  1  0  0  0
 16 17  1  0  0  0
 17 18  1  0  0  0
  9 10  1  0  0  0
 10 11  2  0  0  0
 11  6  1  0  0  0
  5  3  1  0  0  0
 18 13  1  0  0  0
  1  2  1  0  0  0
 16 19  1  0  0  0
M  END
> <minimizedAffinity>
-6.36090

> <CNNscore>
0.1913227290

> <CNNaffinity>
4.5518307686

> <CNN_VS>
0.8708686829

> <CNNaffinity_variance>
0.1465152204

$$$$
[H]c1c([H])c([H])c([C@@]2([H])C([H])([H])[C@]2([H])N([H])C([H])([H])C2([H])C([H])([H])C([H])([H])N([H])C([H])([H])C2([H])[H])c([H])c1[H]


 19 21  0  0  0  0  0  0  0  0999 V2000
   56.5229   -6.4151   -5.9617 N   0  0  0  0  0  0  0  0  0  0  0  0
   56.8717   -5.8642   -5.1611 H   0  0  0  0  0  0  0  0  0  0  0  0
   57.2831   -4.8749   -7.8495 C   0  0  0  0  0  0  0  0  0  0  0  0
   56.3864   -4.1200   -6.8633 C   0  0  0  0  0  0  0  0  0  0  0  0
   56.2187   -5.6188   -7.1345 C   0  0  0  0  0  0  0  0  0  0  0  0
   56.5436   -4.2385  -12.0432 C   0  0  0  0  0  0  0  0  0  0  0  0
   55.5678   -4.0161  -11.0947 C   0  0  0  0  0  0  0  0  0  0  0  0
   55.8307   -4.2293   -9.7405 C   0  0  0  0  0  0  0  0  0  0  0  0
   57.0561   -4.6639   -9.2994 C   0  0  0  0  0  0  0  0  0  0  0  0
   58.0273   -4.8842  -10.2536 C   0  0  0  0  0  0  0  0  0  0  0  0
   57.7720   -4.6739  -11.6054 C   0  0  0  0  0  0  0  0  0  0  0  0
   55.3299   -7.1770   -5.6553 C   0  0  0  0  0  0  0  0  0  0  0  0
   55.2796   -7.6670   -4.2382 C   0  0  0  0  0  0  0  0  0  0  0  0
   54.0501   -7.1173   -3.5730 C   0  0  0  0  0  0  0  0  0  0  0  0
   54.0594   -5.6361   -3.3773 C   0  0  0  0  0  0  0  0  0  0  0  0
   55.3990   -5.0746   -3.3713 N   0  0  0  0  0  0  0  0  0  0  0  0
   56.2191   -6.0221   -2.6009 C   0  0  0  0  0  0  0  0  0  0  0  0
   56.5455   -7.1642   -3.5527 C   0  0  0  0  0  0  0  0  0  0  0  0
   55.3807   -4.1469   -2.9358 H   0  0  0  0  0  0  0  0  0  0  0  0
  6  7  2  0  0  0
  7  8  1  0  0  0
  8  9  2  0  0  0
  9  3  1  0  0  0
  3  4  1  0  0  0
  4  5  1  0  0  0
  5  1  1  0  0  0
  1 12  1  0  0  0
 12 13  1  0  0  0
 13 14  1  0  0  0
 14 15  1  0  0  0
 15 16  1  0  0  0
 16 17  1  0  0  0
 17 18  1  0  0  0
  9 10  1  0  0  0
 10 11  2  0  0  0
 11  6  1  0  0  0
  5  3  1  0  0  0
 18 13  1  0  0  0
  1  2  1  0  0  0
 16 19  1  0  0  0
M  END
> <minimizedAffinity>
-6.31698

> <CNNscore>
0.1809766740

> <CNNaffinity>
4.2805604935

> <CNN_VS>
0.7746816278

> <CNNaffinity_variance>
0.2652100623

$$$$
[H]c1c([H])c([H])c([C@@]2([H])C([H])([H])[C@]2([H])N([H])C([H])([H])C2([H])C([H])([H])C([H])([H])N([H])C([H])([H])C2([H])[H])c([H])c1[H]


 19 21  0  0  0  0  0  0  0  0999 V2000
   60.3499   -6.9914   -9.3030 N   0  0  0  0  0  0  0  0  0  0  0  0
   60.8018   -7.1377  -10.2198 H   0  0  0  0  0  0  0  0  0  0  0  0
   58.1245   -5.8628   -9.8394 C   0  0  0  0  0  0  0  0  0  0  0  0
   59.2617   -5.2264  -10.6445 C   0  0  0  0  0  0  0  0  0  0  0  0
   59.4857   -5.8283   -9.2532 C   0  0  0  0  0  0  0  0  0  0  0  0
   55.2744   -3.2622   -7.9282 C   0  0  0  0  0  0  0  0  0  0  0  0
   56.2834   -3.8765   -7.2172 C   0  0  0  0  0  0  0  0  0  0  0  0
   57.1961   -4.7157   -7.8585 C   0  0  0  0  0  0  0  0  0  0  0  0
   57.1301   -4.9629   -9.2073 C   0  0  0  0  0  0  0  0  0  0  0  0
   56.1183   -4.3451   -9.9122 C   0  0  0  0  0  0  0  0  0  0  0  0
   55.2048   -3.5073   -9.2792 C   0  0  0  0  0  0  0  0  0  0  0  0
   61.2957   -6.8537   -8.2148 C   0  0  0  0  0  0  0  0  0  0  0  0
   61.9433   -8.1471   -7.8168 C   0  0  0  0  0  0  0  0  0  0  0  0
   63.4355   -7.9771   -7.8452 C   0  0  0  0  0  0  0  0  0  0  0  0
   64.0102   -7.7615   -9.2074 C   0  0  0  0  0  0  0  0  0  0  0  0
   63.1524   -8.2593  -10.2687 N   0  0  0  0  0  0  0  0  0  0  0  0
   62.6266   -9.5432   -9.7797 C   0  0  0  0  0  0  0  0  0  0  0  0
   61.4913   -9.1958   -8.8273 C   0  0  0  0  0  0  0  0  0  0  0  0
   63.7003   -8.3756  -11.1271 H   0  0  0  0  0  0  0  0  0  0  0  0
  6  7  2  0  0  0
  7  8  1  0  0  0
  8  9  2  0  0  0
  9  3  1  0  0  0
  3  4  1  0  0  0
  4  5  1  0  0  0
  5  1  1  0  0  0
  1 12  1  0  0  0
 12 13  1  0  0  0
 13 14  1  0  0  0
 14 15  1  0  0  0
 15 16  1  0  0  0
 16 17  1  0  0  0
 17 18  1  0  0  0
  9 10  1  0  0  0
 10 11  2  0  0  0
 11  6  1  0  0  0
  5  3  1  0  0  0
 18 13  1  0  0  0
  1  2  1  0  0  0
 16 19  1  0  0  0
M  END
> <minimizedAffinity>
-4.95351

> <CNNscore>
0.1799338907

> <CNNaffinity>
3.6116337776

> <CNN_VS>
0.6498553157

> <CNNaffinity_variance>
0.1905184984

$$$$
[H]c1c([H])c([H])c([C@@]2([H])C([H])([H])[C@]2([H])N([H])C([H])([H])C2([H])C([H])([H])C([H])([H])N([H])C([H])([H])C2([H])[H])c([H])c1[H]


 19 21  0  0  0  0  0  0  0  0999 V2000
   53.1661   -5.6619   -5.1259 N   0  0  0  0  0  0  0  0  0  0  0  0
   52.4417   -6.3837   -4.9837 H   0  0  0  0  0  0  0  0  0  0  0  0
   54.1775   -4.6281   -7.2287 C   0  0  0  0  0  0  0  0  0  0  0  0
   53.0072   -5.5488   -7.5877 C   0  0  0  0  0  0  0  0  0  0  0  0
   53.8998   -5.8029   -6.3684 C   0  0  0  0  0  0  0  0  0  0  0  0
   57.7061   -4.8400   -9.6871 C   0  0  0  0  0  0  0  0  0  0  0  0
   56.5059   -4.3765  -10.1828 C   0  0  0  0  0  0  0  0  0  0  0  0
   55.3749   -4.3167   -9.3668 C   0  0  0  0  0  0  0  0  0  0  0  0
   55.4076   -4.7116   -8.0523 C   0  0  0  0  0  0  0  0  0  0  0  0
   56.6114   -5.1741   -7.5632 C   0  0  0  0  0  0  0  0  0  0  0  0
   57.7428   -5.2365   -8.3712 C   0  0  0  0  0  0  0  0  0  0  0  0
   54.1502   -5.6223   -4.0640 C   0  0  0  0  0  0  0  0  0  0  0  0
   53.8955   -6.6208   -2.9737 C   0  0  0  0  0  0  0  0  0  0  0  0
   52.5178   -6.3987   -2.4178 C   0  0  0  0  0  0  0  0  0  0  0  0
   52.3436   -5.1071   -1.6874 C   0  0  0  0  0  0  0  0  0  0  0  0
   53.5973   -4.5595   -1.1993 N   0  0  0  0  0  0  0  0  0  0  0  0
   54.3564   -5.7107   -0.6871 C   0  0  0  0  0  0  0  0  0  0  0  0
   54.9609   -6.3906   -1.9074 C   0  0  0  0  0  0  0  0  0  0  0  0
   53.4084   -3.8715   -0.4634 H   0  0  0  0  0  0  0  0  0  0  0  0
  6  7  2  0  0  0
  7  8  1  0  0  0
  8  9  2  0  0  0
  9  3  1  0  0  0
  3  4  1  0  0  0
  4  5  1  0  0  0
  5  1  1  0  0  0
  1 12  1  0  0  0
 12 13  1  0  0  0
 13 14  1  0  0  0
 14 15  1  0  0  0
 15 16  1  0  0  0
 16 17  1  0  0  0
 17 18  1  0  0  0
  9 10  1  0  0  0
 10 11  2  0  0  0
 11  6  1  0  0  0
  5  3  1  0  0  0
 18 13  1  0  0  0
  1  2  1  0  0  0
 16 19  1  0  0  0
M  END
> <minimizedAffinity>
-6.70315

> <CNNscore>
0.1760281771

> <CNNaffinity>
4.7638573647

> <CNN_VS>
0.8385731578

> <CNNaffinity_variance>
0.1027039886

$$$$
[H]c1c([H])c([H])c([C@@]2([H])C([H])([H])[C@]2([H])N([H])C([H])([H])C2([H])C([H])([H])C([H])([H])N([H])C([H])([H])C2([H])[H])c([H])c1[H]


 19 21  0  0  0  0  0  0  0  0999 V2000
   60.0326   -6.2240   -8.4230 N   0  0  0  0  0  0  0  0  0  0  0  0
   59.9274   -7.0072   -7.7585 H   0  0  0  0  0  0  0  0  0  0  0  0
   58.3252   -4.6251   -9.4437 C   0  0  0  0  0  0  0  0  0  0  0  0
   57.6589   -5.5426   -8.4139 C   0  0  0  0  0  0  0  0  0  0  0  0
   58.8631   -5.9926   -9.2480 C   0  0  0  0  0  0  0  0  0  0  0  0
   56.3529   -3.9365  -13.2088 C   0  0  0  0  0  0  0  0  0  0  0  0
   57.7274   -3.9846  -13.1103 C   0  0  0  0  0  0  0  0  0  0  0  0
   58.3447   -4.2093  -11.8786 C   0  0  0  0  0  0  0  0  0  0  0  0
   57.6201   -4.3899  -10.7266 C   0  0  0  0  0  0  0  0  0  0  0  0
   56.2458   -4.3405  -10.8325 C   0  0  0  0  0  0  0  0  0  0  0  0
   55.6238   -4.1168  -12.0572 C   0  0  0  0  0  0  0  0  0  0  0  0
   61.1531   -6.3869   -9.3260 C   0  0  0  0  0  0  0  0  0  0  0  0
   62.3428   -7.0453   -8.6920 C   0  0  0  0  0  0  0  0  0  0  0  0
   62.8666   -8.1064   -9.6172 C   0  0  0  0  0  0  0  0  0  0  0  0
   61.9490   -9.2693   -9.8112 C   0  0  0  0  0  0  0  0  0  0  0  0
   61.0000   -9.4290   -8.7233 N   0  0  0  0  0  0  0  0  0  0  0  0
   61.7635   -9.1660   -7.4937 C   0  0  0  0  0  0  0  0  0  0  0  0
   61.8627   -7.6516   -7.3778 C   0  0  0  0  0  0  0  0  0  0  0  0
   60.6183  -10.3802   -8.7370 H   0  0  0  0  0  0  0  0  0  0  0  0
  6  7  2  0  0  0
  7  8  1  0  0  0
  8  9  2  0  0  0
  9  3  1  0  0  0
  3  4  1  0  0  0
  4  5  1  0  0  0
  5  1  1  0  0  0
  1 12  1  0  0  0
 12 13  1  0  0  0
 13 14  1  0  0  0
 14 15  1  0  0  0
 15 16  1  0  0  0
 16 17  1  0  0  0
 17 18  1  0  0  0
  9 10  1  0  0  0
 10 11  2  0  0  0
 11  6  1  0  0  0
  5  3  1  0  0  0
 18 13  1  0  0  0
  1  2  1  0  0  0
 16 19  1  0  0  0
M  END
> <minimizedAffinity>
-4.71760

> <CNNscore>
0.1566447914

> <CNNaffinity>
3.4865589142

> <CNN_VS>
0.5461512804

> <CNNaffinity_variance>
0.1664352119

$$$$
[H]c1c([H])c([H])c([C@@]2([H])C([H])([H])[C@]2([H])N([H])C([H])([H])C2([H])C([H])([H])C([H])([H])N([H])C([H])([H])C2([H])[H])c([H])c1[H]


 19 21  0  0  0  0  0  0  0  0999 V2000
   54.3682   -3.6939  -10.3077 N   0  0  0  0  0  0  0  0  0  0  0  0
   54.6626   -2.8236  -10.7788 H   0  0  0  0  0  0  0  0  0  0  0  0
   52.3063   -3.0825   -8.9335 C   0  0  0  0  0  0  0  0  0  0  0  0
   53.3856   -2.0040   -8.7985 C   0  0  0  0  0  0  0  0  0  0  0  0
   53.7317   -3.4799   -9.0228 C   0  0  0  0  0  0  0  0  0  0  0  0
   50.2941   -4.4012   -5.3625 C   0  0  0  0  0  0  0  0  0  0  0  0
   51.3739   -5.0857   -5.8791 C   0  0  0  0  0  0  0  0  0  0  0  0
   52.0105   -4.6391   -7.0383 C   0  0  0  0  0  0  0  0  0  0  0  0
   51.5951   -3.5137   -7.7061 C   0  0  0  0  0  0  0  0  0  0  0  0
   50.5145   -2.8341   -7.1837 C   0  0  0  0  0  0  0  0  0  0  0  0
   49.8751   -3.2738   -6.0284 C   0  0  0  0  0  0  0  0  0  0  0  0
   55.4591   -4.6195  -10.0825 C   0  0  0  0  0  0  0  0  0  0  0  0
   56.8044   -3.9577  -10.0269 C   0  0  0  0  0  0  0  0  0  0  0  0
   56.9658   -3.0739  -11.2308 C   0  0  0  0  0  0  0  0  0  0  0  0
   57.0452   -3.8046  -12.5315 C   0  0  0  0  0  0  0  0  0  0  0  0
   57.4699   -5.1853  -12.3799 N   0  0  0  0  0  0  0  0  0  0  0  0
   58.5412   -5.1589  -11.3722 C   0  0  0  0  0  0  0  0  0  0  0  0
   57.8444   -5.0728  -10.0217 C   0  0  0  0  0  0  0  0  0  0  0  0
   57.8044   -5.5428  -13.2804 H   0  0  0  0  0  0  0  0  0  0  0  0
  6  7  2  0  0  0
  7  8  1  0  0  0
  8  9  2  0  0  0
  9  3  1  0  0  0
  3  4  1  0  0  0
  4  5  1  0  0  0
  5  1  1  0  0  0
  1 12  1  0  0  0
 12 13  1  0  0  0
 13 14  1  0  0  0
 14 15  1  0  0  0
 15 16  1  0  0  0
 16 17  1  0  0  0
 17 18  1  0  0  0
  9 10  1  0  0  0
 10 11  2  0  0  0
 11  6  1  0  0  0
  5  3  1  0  0  0
 18 13  1  0  0  0
  1  2  1  0  0  0
 16 19  1  0  0  0
M  END
> <minimizedAffinity>
-6.92737

> <CNNscore>
0.1518716961

> <CNNaffinity>
4.8428277969

> <CNN_VS>
0.7354884744

> <CNNaffinity_variance>
0.0148266684

$$$$
[H]c1c([H])c([H])c([C@@]2([H])C([H])([H])[C@]2([H])N([H])C([H])([H])C2([H])C([H])([H])C([H])([H])N([H])C([H])([H])C2([H])[H])c([H])c1[H]


 19 21  0  0  0  0  0  0  0  0999 V2000
   54.1971   -3.9156   -9.9203 N   0  0  0  0  0  0  0  0  0  0  0  0
   54.4629   -3.1155  -10.5162 H   0  0  0  0  0  0  0  0  0  0  0  0
   52.1187   -3.0004   -8.7557 C   0  0  0  0  0  0  0  0  0  0  0  0
   53.2897   -2.0224   -8.6198 C   0  0  0  0  0  0  0  0  0  0  0  0
   53.4994   -3.5379   -8.7068 C   0  0  0  0  0  0  0  0  0  0  0  0
   49.7456   -3.8251   -5.2589 C   0  0  0  0  0  0  0  0  0  0  0  0
   50.7955   -4.6387   -5.6290 C   0  0  0  0  0  0  0  0  0  0  0  0
   51.5510   -4.3513   -6.7670 C   0  0  0  0  0  0  0  0  0  0  0  0
   51.2855   -3.2604   -7.5572 C   0  0  0  0  0  0  0  0  0  0  0  0
   50.2339   -2.4511   -7.1810 C   0  0  0  0  0  0  0  0  0  0  0  0
   49.4765   -2.7318   -6.0477 C   0  0  0  0  0  0  0  0  0  0  0  0
   55.3263   -4.7271   -9.5154 C   0  0  0  0  0  0  0  0  0  0  0  0
   56.5881   -3.9406   -9.3151 C   0  0  0  0  0  0  0  0  0  0  0  0
   57.1632   -3.5870  -10.6569 C   0  0  0  0  0  0  0  0  0  0  0  0
   57.6601   -4.7538  -11.4467 C   0  0  0  0  0  0  0  0  0  0  0  0
   57.9802   -5.9029  -10.6180 N   0  0  0  0  0  0  0  0  0  0  0  0
   58.6506   -5.3555   -9.4285 C   0  0  0  0  0  0  0  0  0  0  0  0
   57.5422   -4.8312   -8.5267 C   0  0  0  0  0  0  0  0  0  0  0  0
   58.5905   -6.5419  -11.1375 H   0  0  0  0  0  0  0  0  0  0  0  0
  6  7  2  0  0  0
  7  8  1  0  0  0
  8  9  2  0  0  0
  9  3  1  0  0  0
  3  4  1  0  0  0
  4  5  1  0  0  0
  5  1  1  0  0  0
  1 12  1  0  0  0
 12 13  1  0  0  0
 13 14  1  0  0  0
 14 15  1  0  0  0
 15 16  1  0  0  0
 16 17  1  0  0  0
 17 18  1  0  0  0
  9 10  1  0  0  0
 10 11  2  0  0  0
 11  6  1  0  0  0
  5  3  1  0  0  0
 18 13  1  0  0  0
  1  2  1  0  0  0
 16 19  1  0  0  0
M  END
> <minimizedAffinity>
-7.28948

> <CNNscore>
0.1514496356

> <CNNaffinity>
4.9311161041

> <CNN_VS>
0.7468157411

> <CNNaffinity_variance>
0.0106679369

$$$$
[H]OC([H])([H])C(F)(F)C([H])([H])N1[C@]([H])(c2c(F)c([H])nc(OC([H])([H])C([H])([H])N([H])C([H])([H])C([H])([H])C([H])([H])F)c2F)c2c(c3c([H])c([H])c([H])c([H])c3n2[H])C([H])([H])[C@@]1([H])C([H])([H])[H]


 39 42  0  0  0  0  0  0  0  0999 V2000
   50.5665   -7.3644   -6.6620 C   0  0  0  0  0  0  0  0  0  0  0  0
   51.4741   -7.1384   -5.4828 C   0  0  0  0  0  0  0  0  0  0  0  0
   50.6535   -6.1305   -4.6255 C   0  0  0  0  0  0  0  0  0  0  0  0
   50.6818   -4.8721   -5.3933 C   0  0  0  0  0  0  0  0  0  0  0  0
   51.7594   -4.5695   -6.1853 C   0  0  0  0  0  0  0  0  0  0  0  0
   51.4792   -3.3722   -6.7453 N   0  0  0  0  0  0  0  0  0  0  0  0
   50.2889   -2.9075   -6.3497 C   0  0  0  0  0  0  0  0  0  0  0  0
   49.5544   -1.7673   -6.6175 C   0  0  0  0  0  0  0  0  0  0  0  0
   48.3224   -1.5740   -6.0351 C   0  0  0  0  0  0  0  0  0  0  0  0
   47.7805   -2.5211   -5.1597 C   0  0  0  0  0  0  0  0  0  0  0  0
   48.5345   -3.6458   -4.9124 C   0  0  0  0  0  0  0  0  0  0  0  0
   49.7658   -3.8500   -5.4877 C   0  0  0  0  0  0  0  0  0  0  0  0
   52.9572   -5.4459   -6.3362 C   0  0  0  0  0  0  0  0  0  0  0  0
   52.7734   -6.7165   -5.7076 N   0  0  0  0  0  0  0  0  0  0  0  0
   52.1032   -2.8630   -7.4050 H   0  0  0  0  0  0  0  0  0  0  0  0
   54.2087   -4.7365   -6.1272 C   0  0  0  0  0  0  0  0  0  0  0  0
   54.8262   -4.0018   -7.1164 C   0  0  0  0  0  0  0  0  0  0  0  0
   54.2568   -3.9411   -8.3134 F   0  0  0  0  0  0  0  0  0  0  0  0
   56.0157   -3.3270   -6.9056 C   0  0  0  0  0  0  0  0  0  0  0  0
   56.5962   -3.3858   -5.6942 N   0  0  0  0  0  0  0  0  0  0  0  0
   56.0626   -4.0784   -4.6747 C   0  0  0  0  0  0  0  0  0  0  0  0
   54.8717   -4.7478   -4.9035 C   0  0  0  0  0  0  0  0  0  0  0  0
   54.3644   -5.4379   -3.8482 F   0  0  0  0  0  0  0  0  0  0  0  0
   56.6969   -4.1026   -3.4631 O   0  0  0  0  0  0  0  0  0  0  0  0
   56.4564   -4.9555   -2.3882 C   0  0  0  0  0  0  0  0  0  0  0  0
   55.5316   -4.4287   -1.3467 C   0  0  0  0  0  0  0  0  0  0  0  0
   55.1360   -5.4443   -0.3861 N   0  0  0  0  0  0  0  0  0  0  0  0
   55.5662   -6.3630   -0.5437 H   0  0  0  0  0  0  0  0  0  0  0  0
   53.7179   -5.5088   -0.1840 C   0  0  0  0  0  0  0  0  0  0  0  0
   53.2120   -6.9235   -0.0517 C   0  0  0  0  0  0  0  0  0  0  0  0
   53.5982   -7.8076   -1.2008 C   0  0  0  0  0  0  0  0  0  0  0  0
   52.8244   -8.9413   -1.3084 F   0  0  0  0  0  0  0  0  0  0  0  0
   53.9124   -7.4196   -5.3989 C   0  0  0  0  0  0  0  0  0  0  0  0
   55.0093   -7.7879   -6.2769 C   0  0  0  0  0  0  0  0  0  0  0  0
   55.1006   -9.1505   -6.5590 F   0  0  0  0  0  0  0  0  0  0  0  0
   54.6868   -7.3130   -7.6263 F   0  0  0  0  0  0  0  0  0  0  0  0
   56.3821   -7.2580   -6.0987 C   0  0  0  0  0  0  0  0  0  0  0  0
   56.9970   -7.3651   -4.8977 O   0  0  0  0  0  0  0  0  0  0  0  0
   57.5248   -8.1927   -4.8101 H   0  0  0  0  0  0  0  0  0  0  0  0
  1  2  1  0  0  0
  2  3  1  0  0  0
  3  4  1  0  0  0
  4  5  2  0  0  0
  5  6  1  0  0  0
  6  7  1  0  0  0
  7  8  2  0  0  0
  8  9  1  0  0  0
  9 10  2  0  0  0
 10 11  1  0  0  0
 11 12  2  0  0  0
  5 13  1  0  0  0
 13 16  1  0  0  0
 16 17  2  0  0  0
 17 18  1  0  0  0
 17 19  1  0  0  0
 19 20  2  0  0  0
 20 21  1  0  0  0
 21 24  1  0  0  0
 24 25  1  0  0  0
 25 26  1  0  0  0
 26 27  1  0  0  0
 27 29  1  0  0  0
 29 30  1  0  0  0
 30 31  1  0  0  0
 31 32  1  0  0  0
 21 22  2  0  0  0
 22 23  1  0  0  0
 13 14  1  0  0  0
 14 33  1  0  0  0
 33 34  1  0  0  0
 34 35  1  0  0  0
 34 36  1  0  0  0
 34 37  1  0  0  0
 37 38  1  0  0  0
 14  2  1  0  0  0
 12  4  1  0  0  0
 22 16  1  0  0  0
 12  7  1  0  0  0
  6 15  1  0  0  0
 27 28  1  0  0  0
 38 39  1  0  0  0
M  END
> <minimizedAffinity>
2.66706

> <CNNscore>
0.3485207260

> <CNNaffinity>
6.8369431496

> <CNN_VS>
2.3828163147

> <CNNaffinity_variance>
0.4757393003

$$$$
[H]OC([H])([H])C(F)(F)C([H])([H])N1[C@]([H])(c2c(F)c([H])nc(OC([H])([H])C([H])([H])N([H])C([H])([H])C([H])([H])C([H])([H])F)c2F)c2c(c3c([H])c([H])c([H])c([H])c3n2[H])C([H])([H])[C@@]1([H])C([H])([H])[H]


 39 42  0  0  0  0  0  0  0  0999 V2000
   57.8620   -6.5472   -9.1107 C   0  0  0  0  0  0  0  0  0  0  0  0
   57.6477   -5.0731   -8.8958 C   0  0  0  0  0  0  0  0  0  0  0  0
   57.9313   -4.9189   -7.3726 C   0  0  0  0  0  0  0  0  0  0  0  0
   56.7958   -5.5847   -6.7084 C   0  0  0  0  0  0  0  0  0  0  0  0
   55.5603   -5.6013   -7.3028 C   0  0  0  0  0  0  0  0  0  0  0  0
   54.7542   -6.2790   -6.4561 N   0  0  0  0  0  0  0  0  0  0  0  0
   55.4133   -6.6872   -5.3661 C   0  0  0  0  0  0  0  0  0  0  0  0
   55.0662   -7.3949   -4.2303 C   0  0  0  0  0  0  0  0  0  0  0  0
   56.0027   -7.6636   -3.2580 C   0  0  0  0  0  0  0  0  0  0  0  0
   57.3262   -7.2304   -3.3904 C   0  0  0  0  0  0  0  0  0  0  0  0
   57.6420   -6.5285   -4.5315 C   0  0  0  0  0  0  0  0  0  0  0  0
   56.7159   -6.2539   -5.5091 C   0  0  0  0  0  0  0  0  0  0  0  0
   55.2589   -4.9706   -8.6208 C   0  0  0  0  0  0  0  0  0  0  0  0
   56.4423   -4.5081   -9.2758 N   0  0  0  0  0  0  0  0  0  0  0  0
   53.7435   -6.4675   -6.6193 H   0  0  0  0  0  0  0  0  0  0  0  0
   54.0961   -4.0992   -8.5795 C   0  0  0  0  0  0  0  0  0  0  0  0
   54.1817   -2.7306   -8.7184 C   0  0  0  0  0  0  0  0  0  0  0  0
   55.3773   -2.1825   -8.8940 F   0  0  0  0  0  0  0  0  0  0  0  0
   53.0678   -1.9106   -8.6814 C   0  0  0  0  0  0  0  0  0  0  0  0
   51.8544   -2.4618   -8.5036 N   0  0  0  0  0  0  0  0  0  0  0  0
   51.6809   -3.7858   -8.3598 C   0  0  0  0  0  0  0  0  0  0  0  0
   52.8068   -4.5917   -8.3994 C   0  0  0  0  0  0  0  0  0  0  0  0
   52.5903   -5.9249   -8.2490 F   0  0  0  0  0  0  0  0  0  0  0  0
   50.4224   -4.2916   -8.1824 O   0  0  0  0  0  0  0  0  0  0  0  0
   49.7224   -4.4448   -6.9878 C   0  0  0  0  0  0  0  0  0  0  0  0
   50.3880   -3.8857   -5.7787 C   0  0  0  0  0  0  0  0  0  0  0  0
   51.4711   -4.7265   -5.2986 N   0  0  0  0  0  0  0  0  0  0  0  0
   52.3256   -4.6767   -5.8655 H   0  0  0  0  0  0  0  0  0  0  0  0
   51.0587   -6.0693   -5.0106 C   0  0  0  0  0  0  0  0  0  0  0  0
   51.3851   -6.4889   -3.5990 C   0  0  0  0  0  0  0  0  0  0  0  0
   50.9669   -5.4862   -2.5642 C   0  0  0  0  0  0  0  0  0  0  0  0
   49.6350   -5.1443   -2.6345 F   0  0  0  0  0  0  0  0  0  0  0  0
   56.2728   -3.5508  -10.2463 C   0  0  0  0  0  0  0  0  0  0  0  0
   56.7992   -3.5375  -11.5999 C   0  0  0  0  0  0  0  0  0  0  0  0
   57.8594   -2.6554  -11.8066 F   0  0  0  0  0  0  0  0  0  0  0  0
   57.5237   -4.7941  -11.8153 F   0  0  0  0  0  0  0  0  0  0  0  0
   55.9214   -3.4955  -12.7936 C   0  0  0  0  0  0  0  0  0  0  0  0
   56.3560   -4.0044  -13.9700 O   0  0  0  0  0  0  0  0  0  0  0  0
   56.1235   -4.9551  -14.0853 H   0  0  0  0  0  0  0  0  0  0  0  0
  1  2  1  0  0  0
  2  3  1  0  0  0
  3  4  1  0  0  0
  4  5  2  0  0  0
  5  6  1  0  0  0
  6  7  1  0  0  0
  7  8  2  0  0  0
  8  9  1  0  0  0
  9 10  2  0  0  0
 10 11  1  0  0  0
 11 12  2  0  0  0
  5 13  1  0  0  0
 13 16  1  0  0  0
 16 17  2  0  0  0
 17 18  1  0  0  0
 17 19  1  0  0  0
 19 20  2  0  0  0
 20 21  1  0  0  0
 21 24  1  0  0  0
 24 25  1  0  0  0
 25 26  1  0  0  0
 26 27  1  0  0  0
 27 29  1  0  0  0
 29 30  1  0  0  0
 30 31  1  0  0  0
 31 32  1  0  0  0
 21 22  2  0  0  0
 22 23  1  0  0  0
 13 14  1  0  0  0
 14 33  1  0  0  0
 33 34  1  0  0  0
 34 35  1  0  0  0
 34 36  1  0  0  0
 34 37  1  0  0  0
 37 38  1  0  0  0
 14  2  1  0  0  0
 12  4  1  0  0  0
 22 16  1  0  0  0
 12  7  1  0  0  0
  6 15  1  0  0  0
 27 28  1  0  0  0
 38 39  1  0  0  0
M  END
> <minimizedAffinity>
-3.66442

> <CNNscore>
0.2975329161

> <CNNaffinity>
7.3406028748

> <CNN_VS>
2.1840710640

> <CNNaffinity_variance>
0.3564674556

$$$$
[H]OC([H])([H])C(F)(F)C([H])([H])N1[C@]([H])(c2c(F)c([H])nc(OC([H])([H])C([H])([H])N([H])C([H])([H])C([H])([H])C([H])([H])F)c2F)c2c(c3c([H])c([H])c([H])c([H])c3n2[H])C([H])([H])[C@@]1([H])C([H])([H])[H]


 39 42  0  0  0  0  0  0  0  0999 V2000
   48.7999   -6.8091   -7.3936 C   0  0  0  0  0  0  0  0  0  0  0  0
   50.1331   -6.9102   -6.7024 C   0  0  0  0  0  0  0  0  0  0  0  0
   49.8221   -6.3090   -5.3003 C   0  0  0  0  0  0  0  0  0  0  0  0
   49.6116   -4.8704   -5.5451 C   0  0  0  0  0  0  0  0  0  0  0  0
   50.2734   -4.2389   -6.5665 C   0  0  0  0  0  0  0  0  0  0  0  0
   49.8672   -2.9507   -6.5267 N   0  0  0  0  0  0  0  0  0  0  0  0
   48.9898   -2.7392   -5.5395 C   0  0  0  0  0  0  0  0  0  0  0  0
   48.2919   -1.6373   -5.0810 C   0  0  0  0  0  0  0  0  0  0  0  0
   47.4365   -1.7459   -4.0080 C   0  0  0  0  0  0  0  0  0  0  0  0
   47.2496   -2.9681   -3.3539 C   0  0  0  0  0  0  0  0  0  0  0  0
   47.9575   -4.0470   -3.8328 C   0  0  0  0  0  0  0  0  0  0  0  0
   48.8144   -3.9512   -4.9029 C   0  0  0  0  0  0  0  0  0  0  0  0
   51.2322   -4.9176   -7.4862 C   0  0  0  0  0  0  0  0  0  0  0  0
   51.2426   -6.3345   -7.2977 N   0  0  0  0  0  0  0  0  0  0  0  0
   50.1889   -2.2048   -7.1776 H   0  0  0  0  0  0  0  0  0  0  0  0
   52.5011   -4.2176   -7.5995 C   0  0  0  0  0  0  0  0  0  0  0  0
   52.7022   -3.1703   -8.4727 C   0  0  0  0  0  0  0  0  0  0  0  0
   51.6958   -2.7852   -9.2469 F   0  0  0  0  0  0  0  0  0  0  0  0
   53.9133   -2.5082   -8.5698 C   0  0  0  0  0  0  0  0  0  0  0  0
   54.9359   -2.8952   -7.7872 N   0  0  0  0  0  0  0  0  0  0  0  0
   54.8263   -3.9058   -6.9094 C   0  0  0  0  0  0  0  0  0  0  0  0
   53.6068   -4.5573   -6.8254 C   0  0  0  0  0  0  0  0  0  0  0  0
   53.5360   -5.5746   -5.9269 F   0  0  0  0  0  0  0  0  0  0  0  0
   55.9001   -4.2561   -6.1380 O   0  0  0  0  0  0  0  0  0  0  0  0
   56.1697   -3.8782   -4.8245 C   0  0  0  0  0  0  0  0  0  0  0  0
   56.0287   -4.9554   -3.8060 C   0  0  0  0  0  0  0  0  0  0  0  0
   56.2859   -6.2769   -4.3518 N   0  0  0  0  0  0  0  0  0  0  0  0
   55.6473   -6.5519   -5.1072 H   0  0  0  0  0  0  0  0  0  0  0  0
   56.4392   -7.2845   -3.3433 C   0  0  0  0  0  0  0  0  0  0  0  0
   55.2797   -8.2483   -3.3016 C   0  0  0  0  0  0  0  0  0  0  0  0
   53.9801   -7.6053   -2.9159 C   0  0  0  0  0  0  0  0  0  0  0  0
   53.0490   -8.4939   -2.4268 F   0  0  0  0  0  0  0  0  0  0  0  0
   52.3539   -7.0057   -7.7467 C   0  0  0  0  0  0  0  0  0  0  0  0
   52.5561   -7.6559   -9.0296 C   0  0  0  0  0  0  0  0  0  0  0  0
   53.5330   -8.6512   -9.0335 F   0  0  0  0  0  0  0  0  0  0  0  0
   51.3891   -8.5030   -9.2958 F   0  0  0  0  0  0  0  0  0  0  0  0
   52.6634   -6.8957  -10.2976 C   0  0  0  0  0  0  0  0  0  0  0  0
   53.0670   -5.6039  -10.2788 O   0  0  0  0  0  0  0  0  0  0  0  0
   54.0428   -5.5061  -10.3756 H   0  0  0  0  0  0  0  0  0  0  0  0
  1  2  1  0  0  0
  2  3  1  0  0  0
  3  4  1  0  0  0
  4  5  2  0  0  0
  5  6  1  0  0  0
  6  7  1  0  0  0
  7  8  2  0  0  0
  8  9  1  0  0  0
  9 10  2  0  0  0
 10 11  1  0  0  0
 11 12  2  0  0  0
  5 13  1  0  0  0
 13 16  1  0  0  0
 16 17  2  0  0  0
 17 18  1  0  0  0
 17 19  1  0  0  0
 19 20  2  0  0  0
 20 21  1  0  0  0
 21 24  1  0  0  0
 24 25  1  0  0  0
 25 26  1  0  0  0
 26 27  1  0  0  0
 27 29  1  0  0  0
 29 30  1  0  0  0
 30 31  1  0  0  0
 31 32  1  0  0  0
 21 22  2  0  0  0
 22 23  1  0  0  0
 13 14  1  0  0  0
 14 33  1  0  0  0
 33 34  1  0  0  0
 34 35  1  0  0  0
 34 36  1  0  0  0
 34 37  1  0  0  0
 37 38  1  0  0  0
 14  2  1  0  0  0
 12  4  1  0  0  0
 22 16  1  0  0  0
 12  7  1  0  0  0
  6 15  1  0  0  0
 27 28  1  0  0  0
 38 39  1  0  0  0
M  END
> <minimizedAffinity>
9.12489

> <CNNscore>
0.2944520414

> <CNNaffinity>
6.9392485619

> <CNN_VS>
2.0432758331

> <CNNaffinity_variance>
0.4335245490

$$$$
[H]OC([H])([H])C(F)(F)C([H])([H])N1[C@]([H])(c2c(F)c([H])nc(OC([H])([H])C([H])([H])N([H])C([H])([H])C([H])([H])C([H])([H])F)c2F)c2c(c3c([H])c([H])c([H])c([H])c3n2[H])C([H])([H])[C@@]1([H])C([H])([H])[H]


 39 42  0  0  0  0  0  0  0  0999 V2000
   57.0337   -5.4369   -7.4161 C   0  0  0  0  0  0  0  0  0  0  0  0
   55.9893   -4.4802   -6.9069 C   0  0  0  0  0  0  0  0  0  0  0  0
   56.3238   -4.4073   -5.3880 C   0  0  0  0  0  0  0  0  0  0  0  0
   55.9439   -5.7283   -4.8545 C   0  0  0  0  0  0  0  0  0  0  0  0
   54.9138   -6.4330   -5.4223 C   0  0  0  0  0  0  0  0  0  0  0  0
   54.8220   -7.5820   -4.7172 N   0  0  0  0  0  0  0  0  0  0  0  0
   55.7345   -7.6373   -3.7408 C   0  0  0  0  0  0  0  0  0  0  0  0
   56.0570   -8.5622   -2.7651 C   0  0  0  0  0  0  0  0  0  0  0  0
   57.0827   -8.3189   -1.8800 C   0  0  0  0  0  0  0  0  0  0  0  0
   57.8247   -7.1347   -1.9418 C   0  0  0  0  0  0  0  0  0  0  0  0
   57.4808   -6.2332   -2.9234 C   0  0  0  0  0  0  0  0  0  0  0  0
   56.4588   -6.4646   -3.8127 C   0  0  0  0  0  0  0  0  0  0  0  0
   54.1106   -5.9491   -6.5826 C   0  0  0  0  0  0  0  0  0  0  0  0
   54.6540   -4.7542   -7.1485 N   0  0  0  0  0  0  0  0  0  0  0  0
   54.1315   -8.3392   -4.9003 H   0  0  0  0  0  0  0  0  0  0  0  0
   52.6775   -6.0245   -6.3508 C   0  0  0  0  0  0  0  0  0  0  0  0
   51.7939   -6.5218   -7.2844 C   0  0  0  0  0  0  0  0  0  0  0  0
   52.2700   -6.9476   -8.4475 F   0  0  0  0  0  0  0  0  0  0  0  0
   50.4318   -6.5926   -7.0520 C   0  0  0  0  0  0  0  0  0  0  0  0
   49.9450   -6.1622   -5.8748 N   0  0  0  0  0  0  0  0  0  0  0  0
   50.7349   -5.6633   -4.9100 C   0  0  0  0  0  0  0  0  0  0  0  0
   52.0959   -5.5998   -5.1597 C   0  0  0  0  0  0  0  0  0  0  0  0
   52.8614   -5.0881   -4.1601 F   0  0  0  0  0  0  0  0  0  0  0  0
   50.1847   -5.2407   -3.7312 O   0  0  0  0  0  0  0  0  0  0  0  0
   50.7167   -5.3555   -2.4488 C   0  0  0  0  0  0  0  0  0  0  0  0
   50.9277   -6.7479   -1.9648 C   0  0  0  0  0  0  0  0  0  0  0  0
   51.7081   -6.8012   -0.7406 N   0  0  0  0  0  0  0  0  0  0  0  0
   51.7933   -5.9001   -0.2562 H   0  0  0  0  0  0  0  0  0  0  0  0
   52.9605   -7.4813   -0.8983 C   0  0  0  0  0  0  0  0  0  0  0  0
   54.1095   -6.7419   -0.2594 C   0  0  0  0  0  0  0  0  0  0  0  0
   54.1006   -5.2673   -0.5357 C   0  0  0  0  0  0  0  0  0  0  0  0
   54.4267   -4.9478   -1.8346 F   0  0  0  0  0  0  0  0  0  0  0  0
   53.7997   -3.9892   -7.9049 C   0  0  0  0  0  0  0  0  0  0  0  0
   54.0607   -3.3374   -9.1763 C   0  0  0  0  0  0  0  0  0  0  0  0
   52.9289   -2.8416   -9.8228 F   0  0  0  0  0  0  0  0  0  0  0  0
   54.7247   -2.0593   -8.9009 F   0  0  0  0  0  0  0  0  0  0  0  0
   54.9603   -3.9221  -10.1991 C   0  0  0  0  0  0  0  0  0  0  0  0
   56.1702   -3.3627  -10.4338 O   0  0  0  0  0  0  0  0  0  0  0  0
   56.8857   -3.7503   -9.8779 H   0  0  0  0  0  0  0  0  0  0  0  0
  1  2  1  0  0  0
  2  3  1  0  0  0
  3  4  1  0  0  0
  4  5  2  0  0  0
  5  6  1  0  0  0
  6  7  1  0  0  0
  7  8  2  0  0  0
  8  9  1  0  0  0
  9 10  2  0  0  0
 10 11  1  0  0  0
 11 12  2  0  0  0
  5 13  1  0  0  0
 13 16  1  0  0  0
 16 17  2  0  0  0
 17 18  1  0  0  0
 17 19  1  0  0  0
 19 20  2  0  0  0
 20 21  1  0  0  0
 21 24  1  0  0  0
 24 25  1  0  0  0
 25 26  1  0  0  0
 26 27  1  0  0  0
 27 29  1  0  0  0
 29 30  1  0  0  0
 30 31  1  0  0  0
 31 32  1  0  0  0
 21 22  2  0  0  0
 22 23  1  0  0  0
 13 14  1  0  0  0
 14 33  1  0  0  0
 33 34  1  0  0  0
 34 35  1  0  0  0
 34 36  1  0  0  0
 34 37  1  0  0  0
 37 38  1  0  0  0
 14  2  1  0  0  0
 12  4  1  0  0  0
 22 16  1  0  0  0
 12  7  1  0  0  0
  6 15  1  0  0  0
 27 28  1  0  0  0
 38 39  1  0  0  0
M  END
> <minimizedAffinity>
-7.23978

> <CNNscore>
0.2865290940

> <CNNaffinity>
7.1676201820

> <CNN_VS>
2.0537316799

> <CNNaffinity_variance>
0.1944673210

$$$$
[H]OC([H])([H])C(F)(F)C([H])([H])N1[C@]([H])(c2c(F)c([H])nc(OC([H])([H])C([H])([H])N([H])C([H])([H])C([H])([H])C([H])([H])F)c2F)c2c(c3c([H])c([H])c([H])c([H])c3n2[H])C([H])([H])[C@@]1([H])C([H])([H])[H]


 39 42  0  0  0  0  0  0  0  0999 V2000
   54.4438   -2.3123   -8.7319 C   0  0  0  0  0  0  0  0  0  0  0  0
   54.6139   -3.7907   -8.9574 C   0  0  0  0  0  0  0  0  0  0  0  0
   53.1437   -4.2639   -9.1538 C   0  0  0  0  0  0  0  0  0  0  0  0
   52.5252   -4.1356   -7.8216 C   0  0  0  0  0  0  0  0  0  0  0  0
   53.2818   -4.2973   -6.6896 C   0  0  0  0  0  0  0  0  0  0  0  0
   52.4347   -4.1172   -5.6524 N   0  0  0  0  0  0  0  0  0  0  0  0
   51.1916   -3.8524   -6.0694 C   0  0  0  0  0  0  0  0  0  0  0  0
   49.9894   -3.5971   -5.4364 C   0  0  0  0  0  0  0  0  0  0  0  0
   48.8492   -3.3543   -6.1683 C   0  0  0  0  0  0  0  0  0  0  0  0
   48.8740   -3.3590   -7.5670 C   0  0  0  0  0  0  0  0  0  0  0  0
   50.0848   -3.6161   -8.1689 C   0  0  0  0  0  0  0  0  0  0  0  0
   51.2298   -3.8600   -7.4491 C   0  0  0  0  0  0  0  0  0  0  0  0
   54.7407   -4.6092   -6.6977 C   0  0  0  0  0  0  0  0  0  0  0  0
   55.2957   -4.5391   -8.0131 N   0  0  0  0  0  0  0  0  0  0  0  0
   52.7027   -4.1743   -4.6481 H   0  0  0  0  0  0  0  0  0  0  0  0
   55.0828   -5.7421   -5.8534 C   0  0  0  0  0  0  0  0  0  0  0  0
   54.6850   -7.0314   -6.1345 C   0  0  0  0  0  0  0  0  0  0  0  0
   53.9548   -7.2495   -7.2208 F   0  0  0  0  0  0  0  0  0  0  0  0
   55.0194   -8.1033   -5.3260 C   0  0  0  0  0  0  0  0  0  0  0  0
   55.7591   -7.8869   -4.2243 N   0  0  0  0  0  0  0  0  0  0  0  0
   56.1885   -6.6629   -3.8762 C   0  0  0  0  0  0  0  0  0  0  0  0
   55.8444   -5.6014   -4.6970 C   0  0  0  0  0  0  0  0  0  0  0  0
   56.2964   -4.3793   -4.3108 F   0  0  0  0  0  0  0  0  0  0  0  0
   56.9390   -6.5017   -2.7441 O   0  0  0  0  0  0  0  0  0  0  0  0
   56.6007   -5.8071   -1.5849 C   0  0  0  0  0  0  0  0  0  0  0  0
   55.2128   -6.0233   -1.0903 C   0  0  0  0  0  0  0  0  0  0  0  0
   54.3936   -4.8273   -1.1854 N   0  0  0  0  0  0  0  0  0  0  0  0
   54.5747   -4.1336   -0.4507 H   0  0  0  0  0  0  0  0  0  0  0  0
   52.9998   -5.1103   -1.3675 C   0  0  0  0  0  0  0  0  0  0  0  0
   52.7226   -5.8820   -2.6335 C   0  0  0  0  0  0  0  0  0  0  0  0
   51.2734   -6.2210   -2.8232 C   0  0  0  0  0  0  0  0  0  0  0  0
   50.4239   -5.1648   -2.5813 F   0  0  0  0  0  0  0  0  0  0  0  0
   56.4768   -5.2100   -8.2179 C   0  0  0  0  0  0  0  0  0  0  0  0
   57.3594   -5.1487   -9.3698 C   0  0  0  0  0  0  0  0  0  0  0  0
   56.7461   -5.4219  -10.5920 F   0  0  0  0  0  0  0  0  0  0  0  0
   57.6922   -3.7407   -9.6094 F   0  0  0  0  0  0  0  0  0  0  0  0
   58.7035   -5.7738   -9.3751 C   0  0  0  0  0  0  0  0  0  0  0  0
   59.4498   -5.7808   -8.2461 O   0  0  0  0  0  0  0  0  0  0  0  0
   59.3028   -6.5843   -7.6948 H   0  0  0  0  0  0  0  0  0  0  0  0
  1  2  1  0  0  0
  2  3  1  0  0  0
  3  4  1  0  0  0
  4  5  2  0  0  0
  5  6  1  0  0  0
  6  7  1  0  0  0
  7  8  2  0  0  0
  8  9  1  0  0  0
  9 10  2  0  0  0
 10 11  1  0  0  0
 11 12  2  0  0  0
  5 13  1  0  0  0
 13 16  1  0  0  0
 16 17  2  0  0  0
 17 18  1  0  0  0
 17 19  1  0  0  0
 19 20  2  0  0  0
 20 21  1  0  0  0
 21 24  1  0  0  0
 24 25  1  0  0  0
 25 26  1  0  0  0
 26 27  1  0  0  0
 27 29  1  0  0  0
 29 30  1  0  0  0
 30 31  1  0  0  0
 31 32  1  0  0  0
 21 22  2  0  0  0
 22 23  1  0  0  0
 13 14  1  0  0  0
 14 33  1  0  0  0
 33 34  1  0  0  0
 34 35  1  0  0  0
 34 36  1  0  0  0
 34 37  1  0  0  0
 37 38  1  0  0  0
 14  2  1  0  0  0
 12  4  1  0  0  0
 22 16  1  0  0  0
 12  7  1  0  0  0
  6 15  1  0  0  0
 27 28  1  0  0  0
 38 39  1  0  0  0
M  END
> <minimizedAffinity>
-5.24721

> <CNNscore>
0.2355528921

> <CNNaffinity>
7.3773870468

> <CNN_VS>
1.7377648354

> <CNNaffinity_variance>
0.1014847979

$$$$
[H]OC([H])([H])C(F)(F)C([H])([H])N1[C@]([H])(c2c(F)c([H])nc(OC([H])([H])C([H])([H])N([H])C([H])([H])C([H])([H])C([H])([H])F)c2F)c2c(c3c([H])c([H])c([H])c([H])c3n2[H])C([H])([H])[C@@]1([H])C([H])([H])[H]


 39 42  0  0  0  0  0  0  0  0999 V2000
   57.3553   -6.1238   -7.1946 C   0  0  0  0  0  0  0  0  0  0  0  0
   56.8985   -4.7280   -7.5241 C   0  0  0  0  0  0  0  0  0  0  0  0
   57.0848   -3.9923   -6.1647 C   0  0  0  0  0  0  0  0  0  0  0  0
   56.0414   -4.5529   -5.2866 C   0  0  0  0  0  0  0  0  0  0  0  0
   54.8526   -4.9860   -5.8149 C   0  0  0  0  0  0  0  0  0  0  0  0
   54.1277   -5.4374   -4.7677 N   0  0  0  0  0  0  0  0  0  0  0  0
   54.7937   -5.3118   -3.6145 C   0  0  0  0  0  0  0  0  0  0  0  0
   54.5132   -5.6111   -2.2942 C   0  0  0  0  0  0  0  0  0  0  0  0
   55.4357   -5.3536   -1.3056 C   0  0  0  0  0  0  0  0  0  0  0  0
   56.6776   -4.7844   -1.6068 C   0  0  0  0  0  0  0  0  0  0  0  0
   56.9283   -4.4975   -2.9294 C   0  0  0  0  0  0  0  0  0  0  0  0
   56.0154   -4.7498   -3.9253 C   0  0  0  0  0  0  0  0  0  0  0  0
   54.5141   -4.9301   -7.2668 C   0  0  0  0  0  0  0  0  0  0  0  0
   55.6367   -4.5450   -8.0635 N   0  0  0  0  0  0  0  0  0  0  0  0
   53.1686   -5.8364   -4.8355 H   0  0  0  0  0  0  0  0  0  0  0  0
   53.2263   -4.3073   -7.5251 C   0  0  0  0  0  0  0  0  0  0  0  0
   53.0981   -3.0880   -8.1549 C   0  0  0  0  0  0  0  0  0  0  0  0
   54.1971   -2.4519   -8.5398 F   0  0  0  0  0  0  0  0  0  0  0  0
   51.8669   -2.5057   -8.3994 C   0  0  0  0  0  0  0  0  0  0  0  0
   50.7506   -3.1467   -8.0110 N   0  0  0  0  0  0  0  0  0  0  0  0
   50.7848   -4.3377   -7.3912 C   0  0  0  0  0  0  0  0  0  0  0  0
   52.0257   -4.9060   -7.1546 C   0  0  0  0  0  0  0  0  0  0  0  0
   52.0187   -6.1102   -6.5246 F   0  0  0  0  0  0  0  0  0  0  0  0
   49.6169   -4.9446   -7.0189 O   0  0  0  0  0  0  0  0  0  0  0  0
   49.2296   -5.3446   -5.7419 C   0  0  0  0  0  0  0  0  0  0  0  0
   49.5371   -4.3820   -4.6481 C   0  0  0  0  0  0  0  0  0  0  0  0
   49.4529   -4.9886   -3.3306 N   0  0  0  0  0  0  0  0  0  0  0  0
   48.7694   -4.5452   -2.7061 H   0  0  0  0  0  0  0  0  0  0  0  0
   50.7339   -5.1898   -2.7186 C   0  0  0  0  0  0  0  0  0  0  0  0
   51.1755   -6.6317   -2.7520 C   0  0  0  0  0  0  0  0  0  0  0  0
   51.1278   -7.3039   -1.4115 C   0  0  0  0  0  0  0  0  0  0  0  0
   52.0130   -8.3512   -1.2880 F   0  0  0  0  0  0  0  0  0  0  0  0
   55.3604   -4.0425   -9.3119 C   0  0  0  0  0  0  0  0  0  0  0  0
   56.1020   -4.2371  -10.5455 C   0  0  0  0  0  0  0  0  0  0  0  0
   56.9458   -5.3474  -10.5519 F   0  0  0  0  0  0  0  0  0  0  0  0
   55.1573   -4.6827  -11.5749 F   0  0  0  0  0  0  0  0  0  0  0  0
   56.7927   -3.1254  -11.2412 C   0  0  0  0  0  0  0  0  0  0  0  0
   56.8295   -3.0940  -12.5938 O   0  0  0  0  0  0  0  0  0  0  0  0
   56.0735   -2.5983  -12.9861 H   0  0  0  0  0  0  0  0  0  0  0  0
  1  2  1  0  0  0
  2  3  1  0  0  0
  3  4  1  0  0  0
  4  5  2  0  0  0
  5  6  1  0  0  0
  6  7  1  0  0  0
  7  8  2  0  0  0
  8  9  1  0  0  0
  9 10  2  0  0  0
 10 11  1  0  0  0
 11 12  2  0  0  0
  5 13  1  0  0  0
 13 16  1  0  0  0
 16 17  2  0  0  0
 17 18  1  0  0  0
 17 19  1  0  0  0
 19 20  2  0  0  0
 20 21  1  0  0  0
 21 24  1  0  0  0
 24 25  1  0  0  0
 25 26  1  0  0  0
 26 27  1  0  0  0
 27 29  1  0  0  0
 29 30  1  0  0  0
 30 31  1  0  0  0
 31 32  1  0  0  0
 21 22  2  0  0  0
 22 23  1  0  0  0
 13 14  1  0  0  0
 14 33  1  0  0  0
 33 34  1  0  0  0
 34 35  1  0  0  0
 34 36  1  0  0  0
 34 37  1  0  0  0
 37 38  1  0  0  0
 14  2  1  0  0  0
 12  4  1  0  0  0
 22 16  1  0  0  0
 12  7  1  0  0  0
  6 15  1  0  0  0
 27 28  1  0  0  0
 38 39  1  0  0  0
M  END
> <minimizedAffinity>
-5.30450

> <CNNscore>
0.2081767470

> <CNNaffinity>
7.2216901779

> <CNN_VS>
1.5033879280

> <CNNaffinity_variance>
0.1371369660

$$$$
[H]OC([H])([H])C(F)(F)C([H])([H])N1[C@]([H])(c2c(F)c([H])nc(OC([H])([H])C([H])([H])N([H])C([H])([H])C([H])([H])C([H])([H])F)c2F)c2c(c3c([H])c([H])c([H])c([H])c3n2[H])C([H])([H])[C@@]1([H])C([H])([H])[H]


 39 42  0  0  0  0  0  0  0  0999 V2000
   57.0880   -5.4734   -7.5850 C   0  0  0  0  0  0  0  0  0  0  0  0
   56.0859   -4.4691   -7.0824 C   0  0  0  0  0  0  0  0  0  0  0  0
   56.4506   -4.3694   -5.5720 C   0  0  0  0  0  0  0  0  0  0  0  0
   56.0365   -5.6628   -4.9980 C   0  0  0  0  0  0  0  0  0  0  0  0
   54.9730   -6.3461   -5.5292 C   0  0  0  0  0  0  0  0  0  0  0  0
   54.8556   -7.4731   -4.7931 N   0  0  0  0  0  0  0  0  0  0  0  0
   55.7836   -7.5349   -3.8318 C   0  0  0  0  0  0  0  0  0  0  0  0
   56.0927   -8.4453   -2.8383 C   0  0  0  0  0  0  0  0  0  0  0  0
   57.1421   -8.2149   -1.9780 C   0  0  0  0  0  0  0  0  0  0  0  0
   57.9223   -7.0585   -2.0834 C   0  0  0  0  0  0  0  0  0  0  0  0
   57.5908   -6.1709   -3.0818 C   0  0  0  0  0  0  0  0  0  0  0  0
   56.5455   -6.3897   -3.9467 C   0  0  0  0  0  0  0  0  0  0  0  0
   54.1652   -5.8645   -6.6873 C   0  0  0  0  0  0  0  0  0  0  0  0
   54.7379   -4.7035   -7.2934 N   0  0  0  0  0  0  0  0  0  0  0  0
   54.1367   -8.2107   -4.9444 H   0  0  0  0  0  0  0  0  0  0  0  0
   52.7349   -5.8851   -6.4284 C   0  0  0  0  0  0  0  0  0  0  0  0
   51.8249   -6.4426   -7.3007 C   0  0  0  0  0  0  0  0  0  0  0  0
   52.2717   -6.9812   -8.4281 F   0  0  0  0  0  0  0  0  0  0  0  0
   50.4656   -6.4603   -7.0427 C   0  0  0  0  0  0  0  0  0  0  0  0
   50.0084   -5.9155   -5.9016 N   0  0  0  0  0  0  0  0  0  0  0  0
   50.8253   -5.3515   -4.9970 C   0  0  0  0  0  0  0  0  0  0  0  0
   52.1830   -5.3426   -5.2716 C   0  0  0  0  0  0  0  0  0  0  0  0
   52.9764   -4.7622   -4.3331 F   0  0  0  0  0  0  0  0  0  0  0  0
   50.3046   -4.8130   -3.8526 O   0  0  0  0  0  0  0  0  0  0  0  0
   49.8110   -5.4864   -2.7375 C   0  0  0  0  0  0  0  0  0  0  0  0
   50.8395   -6.0986   -1.8515 C   0  0  0  0  0  0  0  0  0  0  0  0
   51.1610   -7.4640   -2.2297 N   0  0  0  0  0  0  0  0  0  0  0  0
   50.4376   -7.9261   -2.7928 H   0  0  0  0  0  0  0  0  0  0  0  0
   51.6200   -8.2615   -1.1301 C   0  0  0  0  0  0  0  0  0  0  0  0
   50.8640   -9.5598   -0.9965 C   0  0  0  0  0  0  0  0  0  0  0  0
   49.6785   -9.4712   -0.0811 C   0  0  0  0  0  0  0  0  0  0  0  0
   48.9221  -10.6211   -0.0457 F   0  0  0  0  0  0  0  0  0  0  0  0
   53.8960   -3.9291   -8.0541 C   0  0  0  0  0  0  0  0  0  0  0  0
   54.1383   -3.3581   -9.3674 C   0  0  0  0  0  0  0  0  0  0  0  0
   52.9917   -2.9511  -10.0489 F   0  0  0  0  0  0  0  0  0  0  0  0
   54.7531   -2.0400   -9.1805 F   0  0  0  0  0  0  0  0  0  0  0  0
   55.0635   -3.9785  -10.3453 C   0  0  0  0  0  0  0  0  0  0  0  0
   56.3068   -3.4712  -10.5147 O   0  0  0  0  0  0  0  0  0  0  0  0
   56.9753   -3.8908   -9.9246 H   0  0  0  0  0  0  0  0  0  0  0  0
  1  2  1  0  0  0
  2  3  1  0  0  0
  3  4  1  0  0  0
  4  5  2  0  0  0
  5  6  1  0  0  0
  6  7  1  0  0  0
  7  8  2  0  0  0
  8  9  1  0  0  0
  9 10  2  0  0  0
 10 11  1  0  0  0
 11 12  2  0  0  0
  5 13  1  0  0  0
 13 16  1  0  0  0
 16 17  2  0  0  0
 17 18  1  0  0  0
 17 19  1  0  0  0
 19 20  2  0  0  0
 20 21  1  0  0  0
 21 24  1  0  0  0
 24 25  1  0  0  0
 25 26  1  0  0  0
 26 27  1  0  0  0
 27 29  1  0  0  0
 29 30  1  0  0  0
 30 31  1  0  0  0
 31 32  1  0  0  0
 21 22  2  0  0  0
 22 23  1  0  0  0
 13 14  1  0  0  0
 14 33  1  0  0  0
 33 34  1  0  0  0
 34 35  1  0  0  0
 34 36  1  0  0  0
 34 37  1  0  0  0
 37 38  1  0  0  0
 14  2  1  0  0  0
 12  4  1  0  0  0
 22 16  1  0  0  0
 12  7  1  0  0  0
  6 15  1  0  0  0
 27 28  1  0  0  0
 38 39  1  0  0  0
M  END
> <minimizedAffinity>
-6.62726

> <CNNscore>
0.2062798291

> <CNNaffinity>
7.1800394058

> <CNN_VS>
1.4810973406

> <CNNaffinity_variance>
0.0711951181

$$$$
[H]OC([H])([H])C(F)(F)C([H])([H])N1[C@]([H])(c2c(F)c([H])nc(OC([H])([H])C([H])([H])N([H])C([H])([H])C([H])([H])C([H])([H])F)c2F)c2c(c3c([H])c([H])c([H])c([H])c3n2[H])C([H])([H])[C@@]1([H])C([H])([H])[H]


 39 42  0  0  0  0  0  0  0  0999 V2000
   52.5161   -6.4063   -7.6827 C   0  0  0  0  0  0  0  0  0  0  0  0
   52.6342   -5.3011   -6.6678 C   0  0  0  0  0  0  0  0  0  0  0  0
   53.4815   -4.2423   -7.4327 C   0  0  0  0  0  0  0  0  0  0  0  0
   54.8278   -4.8356   -7.5298 C   0  0  0  0  0  0  0  0  0  0  0  0
   55.2829   -5.6812   -6.5511 C   0  0  0  0  0  0  0  0  0  0  0  0
   56.5267   -6.0478   -6.9313 N   0  0  0  0  0  0  0  0  0  0  0  0
   56.8767   -5.4806   -8.0910 C   0  0  0  0  0  0  0  0  0  0  0  0
   58.0037   -5.5225   -8.8906 C   0  0  0  0  0  0  0  0  0  0  0  0
   58.0588   -4.8029  -10.0627 C   0  0  0  0  0  0  0  0  0  0  0  0
   56.9815   -4.0124  -10.4766 C   0  0  0  0  0  0  0  0  0  0  0  0
   55.8735   -3.9906   -9.6602 C   0  0  0  0  0  0  0  0  0  0  0  0
   55.8065   -4.7045   -8.4878 C   0  0  0  0  0  0  0  0  0  0  0  0
   54.4941   -6.0624   -5.3436 C   0  0  0  0  0  0  0  0  0  0  0  0
   53.1459   -5.5929   -5.4149 N   0  0  0  0  0  0  0  0  0  0  0  0
   57.1468   -6.6915   -6.3975 H   0  0  0  0  0  0  0  0  0  0  0  0
   55.2326   -5.8834   -4.1043 C   0  0  0  0  0  0  0  0  0  0  0  0
   55.9459   -4.7396   -3.8172 C   0  0  0  0  0  0  0  0  0  0  0  0
   55.9633   -3.7594   -4.7114 F   0  0  0  0  0  0  0  0  0  0  0  0
   56.6424   -4.5780   -2.6326 C   0  0  0  0  0  0  0  0  0  0  0  0
   56.6276   -5.5688   -1.7237 N   0  0  0  0  0  0  0  0  0  0  0  0
   55.9585   -6.7162   -1.9227 C   0  0  0  0  0  0  0  0  0  0  0  0
   55.2668   -6.8609   -3.1141 C   0  0  0  0  0  0  0  0  0  0  0  0
   54.6037   -8.0358   -3.2786 F   0  0  0  0  0  0  0  0  0  0  0  0
   55.9779   -7.6901   -0.9625 O   0  0  0  0  0  0  0  0  0  0  0  0
   54.9777   -8.0089   -0.0467 C   0  0  0  0  0  0  0  0  0  0  0  0
   53.8079   -7.0876   -0.0289 C   0  0  0  0  0  0  0  0  0  0  0  0
   52.5395   -7.7953   -0.0598 N   0  0  0  0  0  0  0  0  0  0  0  0
   52.1658   -8.0300    0.8671 H   0  0  0  0  0  0  0  0  0  0  0  0
   52.5321   -8.9018   -0.9716 C   0  0  0  0  0  0  0  0  0  0  0  0
   51.3280   -9.7932   -0.7963 C   0  0  0  0  0  0  0  0  0  0  0  0
   50.1101   -9.0656   -0.3081 C   0  0  0  0  0  0  0  0  0  0  0  0
   48.9258   -9.6461   -0.7032 F   0  0  0  0  0  0  0  0  0  0  0  0
   52.4668   -5.4920   -4.2250 C   0  0  0  0  0  0  0  0  0  0  0  0
   51.0566   -5.7281   -3.9699 C   0  0  0  0  0  0  0  0  0  0  0  0
   50.3397   -6.2217   -5.0594 F   0  0  0  0  0  0  0  0  0  0  0  0
   50.9459   -6.8996   -3.0948 F   0  0  0  0  0  0  0  0  0  0  0  0
   50.2027   -4.7475   -3.2584 C   0  0  0  0  0  0  0  0  0  0  0  0
   48.8601   -4.9163   -3.2296 O   0  0  0  0  0  0  0  0  0  0  0  0
   48.5563   -5.4382   -2.4508 H   0  0  0  0  0  0  0  0  0  0  0  0
  1  2  1  0  0  0
  2  3  1  0  0  0
  3  4  1  0  0  0
  4  5  2  0  0  0
  5  6  1  0  0  0
  6  7  1  0  0  0
  7  8  2  0  0  0
  8  9  1  0  0  0
  9 10  2  0  0  0
 10 11  1  0  0  0
 11 12  2  0  0  0
  5 13  1  0  0  0
 13 16  1  0  0  0
 16 17  2  0  0  0
 17 18  1  0  0  0
 17 19  1  0  0  0
 19 20  2  0  0  0
 20 21  1  0  0  0
 21 24  1  0  0  0
 24 25  1  0  0  0
 25 26  1  0  0  0
 26 27  1  0  0  0
 27 29  1  0  0  0
 29 30  1  0  0  0
 30 31  1  0  0  0
 31 32  1  0  0  0
 21 22  2  0  0  0
 22 23  1  0  0  0
 13 14  1  0  0  0
 14 33  1  0  0  0
 33 34  1  0  0  0
 34 35  1  0  0  0
 34 36  1  0  0  0
 34 37  1  0  0  0
 37 38  1  0  0  0
 14  2  1  0  0  0
 12  4  1  0  0  0
 22 16  1  0  0  0
 12  7  1  0  0  0
  6 15  1  0  0  0
 27 28  1  0  0  0
 38 39  1  0  0  0
M  END
> <minimizedAffinity>
-8.25934

> <CNNscore>
0.1993246228

> <CNNaffinity>
6.8900537491

> <CNN_VS>
1.3733574152

> <CNNaffinity_variance>
0.2583115697

$$$$
[H]OC([H])([H])C(F)(F)C([H])([H])N1[C@]([H])(c2c(F)c([H])nc(OC([H])([H])C([H])([H])N([H])C([H])([H])C([H])([H])C([H])([H])F)c2F)c2c(c3c([H])c([H])c([H])c([H])c3n2[H])C([H])([H])[C@@]1([H])C([H])([H])[H]


 39 42  0  0  0  0  0  0  0  0999 V2000
   52.5083   -6.4105   -7.6613 C   0  0  0  0  0  0  0  0  0  0  0  0
   52.6463   -5.3317   -6.6209 C   0  0  0  0  0  0  0  0  0  0  0  0
   53.4826   -4.2552   -7.3733 C   0  0  0  0  0  0  0  0  0  0  0  0
   54.8257   -4.8481   -7.5088 C   0  0  0  0  0  0  0  0  0  0  0  0
   55.2958   -5.7191   -6.5599 C   0  0  0  0  0  0  0  0  0  0  0  0
   56.5321   -6.0780   -6.9707 N   0  0  0  0  0  0  0  0  0  0  0  0
   56.8632   -5.4822   -8.1216 C   0  0  0  0  0  0  0  0  0  0  0  0
   57.9760   -5.5056   -8.9415 C   0  0  0  0  0  0  0  0  0  0  0  0
   58.0125   -4.7565  -10.0957 C   0  0  0  0  0  0  0  0  0  0  0  0
   56.9298   -3.9539  -10.4706 C   0  0  0  0  0  0  0  0  0  0  0  0
   55.8362   -3.9510   -9.6348 C   0  0  0  0  0  0  0  0  0  0  0  0
   55.7880   -4.6943   -8.4799 C   0  0  0  0  0  0  0  0  0  0  0  0
   54.5272   -6.1295   -5.3489 C   0  0  0  0  0  0  0  0  0  0  0  0
   53.1790   -5.6560   -5.3849 N   0  0  0  0  0  0  0  0  0  0  0  0
   57.1599   -6.7361   -6.4643 H   0  0  0  0  0  0  0  0  0  0  0  0
   55.2874   -5.9834   -4.1185 C   0  0  0  0  0  0  0  0  0  0  0  0
   55.9896   -4.8397   -3.8045 C   0  0  0  0  0  0  0  0  0  0  0  0
   55.9752   -3.8283   -4.6633 F   0  0  0  0  0  0  0  0  0  0  0  0
   56.7070   -4.7096   -2.6285 C   0  0  0  0  0  0  0  0  0  0  0  0
   56.7245   -5.7321   -1.7555 N   0  0  0  0  0  0  0  0  0  0  0  0
   56.0684   -6.8818   -1.9824 C   0  0  0  0  0  0  0  0  0  0  0  0
   55.3554   -6.9947   -3.1646 C   0  0  0  0  0  0  0  0  0  0  0  0
   54.7062   -8.1729   -3.3582 F   0  0  0  0  0  0  0  0  0  0  0  0
   56.1209   -7.8887   -1.0582 O   0  0  0  0  0  0  0  0  0  0  0  0
   57.1852   -8.2338   -0.2282 C   0  0  0  0  0  0  0  0  0  0  0  0
   57.9176   -9.4737   -0.6075 C   0  0  0  0  0  0  0  0  0  0  0  0
   59.0108   -9.2165   -1.5291 N   0  0  0  0  0  0  0  0  0  0  0  0
   59.6982   -9.9767   -1.5893 H   0  0  0  0  0  0  0  0  0  0  0  0
   59.6073   -7.9248   -1.3514 C   0  0  0  0  0  0  0  0  0  0  0  0
   59.9227   -7.2438   -2.6598 C   0  0  0  0  0  0  0  0  0  0  0  0
   59.2914   -7.9076   -3.8481 C   0  0  0  0  0  0  0  0  0  0  0  0
   58.3675   -7.1177   -4.4946 F   0  0  0  0  0  0  0  0  0  0  0  0
   52.5208   -5.5843   -4.1812 C   0  0  0  0  0  0  0  0  0  0  0  0
   51.1217   -5.8562   -3.9021 C   0  0  0  0  0  0  0  0  0  0  0  0
   50.3882   -6.3250   -4.9915 F   0  0  0  0  0  0  0  0  0  0  0  0
   51.0533   -7.0595   -3.0667 F   0  0  0  0  0  0  0  0  0  0  0  0
   50.2671   -4.9175   -3.1367 C   0  0  0  0  0  0  0  0  0  0  0  0
   48.9242   -4.9359   -3.3052 O   0  0  0  0  0  0  0  0  0  0  0  0
   48.4677   -5.5425   -2.6768 H   0  0  0  0  0  0  0  0  0  0  0  0
  1  2  1  0  0  0
  2  3  1  0  0  0
  3  4  1  0  0  0
  4  5  2  0  0  0
  5  6  1  0  0  0
  6  7  1  0  0  0
  7  8  2  0  0  0
  8  9  1  0  0  0
  9 10  2  0  0  0
 10 11  1  0  0  0
 11 12  2  0  0  0
  5 13  1  0  0  0
 13 16  1  0  0  0
 16 17  2  0  0  0
 17 18  1  0  0  0
 17 19  1  0  0  0
 19 20  2  0  0  0
 20 21  1  0  0  0
 21 24  1  0  0  0
 24 25  1  0  0  0
 25 26  1  0  0  0
 26 27  1  0  0  0
 27 29  1  0  0  0
 29 30  1  0  0  0
 30 31  1  0  0  0
 31 32  1  0  0  0
 21 22  2  0  0  0
 22 23  1  0  0  0
 13 14  1  0  0  0
 14 33  1  0  0  0
 33 34  1  0  0  0
 34 35  1  0  0  0
 34 36  1  0  0  0
 34 37  1  0  0  0
 37 38  1  0  0  0
 14  2  1  0  0  0
 12  4  1  0  0  0
 22 16  1  0  0  0
 12  7  1  0  0  0
  6 15  1  0  0  0
 27 28  1  0  0  0
 38 39  1  0  0  0
M  END
> <minimizedAffinity>
-7.83572

> <CNNscore>
0.1727590710

> <CNNaffinity>
6.4803986549

> <CNN_VS>
1.1195476055

> <CNNaffinity_variance>
0.4901126027

$$$$
[H]c1c([H])c(C([H])(C(=O)N([H])C([H])([H])c2c([H])c([H])c(C(F)(F)F)c([H])c2C2([H])C([H])([H])C([H])([H])C([H])([H])C([H])([H])C2([H])[H])C([H])([H])[H])c([H])c(F)c1N([H])S(=O)(=O)C([H])([H])[H]


 36 38  0  0  0  0  0  0  0  0999 V2000
   51.2464   -3.8602   -8.0977 C   0  0  0  0  0  0  0  0  0  0  0  0
   50.3752   -3.1984   -8.1334 O   0  0  0  0  0  0  0  0  0  0  0  0
   52.3560   -4.4639   -8.7014 N   0  0  0  0  0  0  0  0  0  0  0  0
   52.1174   -3.7291   -9.8728 H   0  0  0  0  0  0  0  0  0  0  0  0
   51.2577   -6.0029   -7.2183 C   0  0  0  0  0  0  0  0  0  0  0  0
   51.6493   -4.6119   -6.6662 C   0  0  0  0  0  0  0  0  0  0  0  0
   50.7352   -4.2159   -5.6559 C   0  0  0  0  0  0  0  0  0  0  0  0
   49.9765   -3.1179   -5.7203 C   0  0  0  0  0  0  0  0  0  0  0  0
   49.0263   -2.8028   -4.8468 C   0  0  0  0  0  0  0  0  0  0  0  0
   48.8060   -3.6942   -3.7187 C   0  0  0  0  0  0  0  0  0  0  0  0
   49.5615   -4.7598   -3.6481 C   0  0  0  0  0  0  0  0  0  0  0  0
   49.4283   -5.5481   -2.4955 F   0  0  0  0  0  0  0  0  0  0  0  0
   50.5361   -5.1310   -4.5498 C   0  0  0  0  0  0  0  0  0  0  0  0
   47.6003   -3.3342   -3.0864 N   0  0  0  0  0  0  0  0  0  0  0  0
   47.6543   -2.2351   -2.7966 H   0  0  0  0  0  0  0  0  0  0  0  0
   46.1613   -4.0774   -2.7893 S   0  0  0  0  0  0  0  0  0  0  0  0
   45.7095   -5.1650   -4.1446 C   0  0  0  0  0  0  0  0  0  0  0  0
   45.1138   -3.1190   -2.3799 O   0  0  0  0  0  0  0  0  0  0  0  0
   46.4107   -5.0636   -1.6014 O   0  0  0  0  0  0  0  0  0  0  0  0
   53.3449   -4.9994   -9.2471 C   0  0  0  0  0  0  0  0  0  0  0  0
   54.7908   -4.6590   -9.2374 C   0  0  0  0  0  0  0  0  0  0  0  0
   55.5482   -4.1215  -10.2451 C   0  0  0  0  0  0  0  0  0  0  0  0
   56.9676   -4.2918  -10.2924 C   0  0  0  0  0  0  0  0  0  0  0  0
   57.5142   -4.9914   -9.3177 C   0  0  0  0  0  0  0  0  0  0  0  0
   56.7701   -5.5573   -8.2910 C   0  0  0  0  0  0  0  0  0  0  0  0
   55.4633   -5.4033   -8.2339 C   0  0  0  0  0  0  0  0  0  0  0  0
   54.5190   -5.7364   -7.1175 C   0  0  0  0  0  0  0  0  0  0  0  0
   54.9047   -4.9269   -5.8599 C   0  0  0  0  0  0  0  0  0  0  0  0
   56.1920   -5.2340   -5.2447 C   0  0  0  0  0  0  0  0  0  0  0  0
   56.3260   -6.7061   -4.9363 C   0  0  0  0  0  0  0  0  0  0  0  0
   55.0863   -7.4631   -5.3407 C   0  0  0  0  0  0  0  0  0  0  0  0
   54.5948   -7.1997   -6.7263 C   0  0  0  0  0  0  0  0  0  0  0  0
   58.9657   -5.5092   -9.4527 C   0  0  0  0  0  0  0  0  0  0  0  0
   59.6632   -5.0469  -10.4306 F   0  0  0  0  0  0  0  0  0  0  0  0
   58.8903   -6.8828   -9.3924 F   0  0  0  0  0  0  0  0  0  0  0  0
   59.5824   -5.1535   -8.2127 F   0  0  0  0  0  0  0  0  0  0  0  0
  5  6  1  0  0  0
  6  1  1  0  0  0
  1  2  2  0  0  0
  1  3  1  0  0  0
  3 20  1  0  0  0
 20 21  1  0  0  0
 21 22  2  0  0  0
 22 23  1  0  0  0
 23 24  2  0  0  0
 24 33  1  0  0  0
 33 34  1  0  0  0
 33 35  1  0  0  0
 33 36  1  0  0  0
 24 25  1  0  0  0
 25 26  2  0  0  0
 26 27  1  0  0  0
 27 28  1  0  0  0
 28 29  1  0  0  0
 29 30  1  0  0  0
 30 31  1  0  0  0
 31 32  1  0  0  0
  6  7  1  0  0  0
  7  8  2  0  0  0
  8  9  1  0  0  0
  9 10  2  0  0  0
 10 14  1  0  0  0
 14 16  1  0  0  0
 16 17  1  0  0  0
 16 18  2  0  0  0
 16 19  2  0  0  0
 10 11  1  0  0  0
 11 12  1  0  0  0
 11 13  2  0  0  0
 26 21  1  0  0  0
 32 27  1  0  0  0
 13  7  1  0  0  0
  3  4  1  0  0  0
 14 15  1  0  0  0
M  END
> <minimizedAffinity>
-1.10135

> <CNNscore>
0.5258706808

> <CNNaffinity>
7.5025548935

> <CNN_VS>
3.9453735352

> <CNNaffinity_variance>
0.6951640248

$$$$
[H]c1c([H])c(C([H])(C(=O)N([H])C([H])([H])c2c([H])c([H])c(C(F)(F)F)c([H])c2C2([H])C([H])([H])C([H])([H])C([H])([H])C([H])([H])C2([H])[H])C([H])([H])[H])c([H])c(F)c1N([H])S(=O)(=O)C([H])([H])[H]


 36 38  0  0  0  0  0  0  0  0999 V2000
   61.6134   -8.7087   -9.5446 C   0  0  0  0  0  0  0  0  0  0  0  0
   60.9153   -8.0527  -10.0742 O   0  0  0  0  0  0  0  0  0  0  0  0
   61.9390   -9.5435   -8.4688 N   0  0  0  0  0  0  0  0  0  0  0  0
   60.6386   -9.3966   -7.9624 H   0  0  0  0  0  0  0  0  0  0  0  0
   63.8194   -8.8574   -8.8545 C   0  0  0  0  0  0  0  0  0  0  0  0
   63.1039   -9.0348  -10.2145 C   0  0  0  0  0  0  0  0  0  0  0  0
   63.4632   -7.9802  -11.0931 C   0  0  0  0  0  0  0  0  0  0  0  0
   64.0268   -6.8349  -10.6980 C   0  0  0  0  0  0  0  0  0  0  0  0
   64.4855   -5.8953  -11.5179 C   0  0  0  0  0  0  0  0  0  0  0  0
   64.3436   -6.1034  -12.9504 C   0  0  0  0  0  0  0  0  0  0  0  0
   63.7761   -7.2176  -13.3348 C   0  0  0  0  0  0  0  0  0  0  0  0
   63.5317   -7.3557  -14.7092 F   0  0  0  0  0  0  0  0  0  0  0  0
   63.3144   -8.2244  -12.5139 C   0  0  0  0  0  0  0  0  0  0  0  0
   65.1254   -5.1468  -13.6262 N   0  0  0  0  0  0  0  0  0  0  0  0
   65.9312   -5.6880  -14.2201 H   0  0  0  0  0  0  0  0  0  0  0  0
   65.0686   -3.5139  -13.8299 S   0  0  0  0  0  0  0  0  0  0  0  0
   65.5860   -3.0562  -15.4873 C   0  0  0  0  0  0  0  0  0  0  0  0
   65.7549   -2.7924  -12.7383 O   0  0  0  0  0  0  0  0  0  0  0  0
   63.5559   -3.1177  -13.8005 O   0  0  0  0  0  0  0  0  0  0  0  0
   62.2227  -10.2874   -7.5052 C   0  0  0  0  0  0  0  0  0  0  0  0
   62.3493  -10.0228   -6.0490 C   0  0  0  0  0  0  0  0  0  0  0  0
   62.6791   -8.8510   -5.4196 C   0  0  0  0  0  0  0  0  0  0  0  0
   63.2345   -8.8352   -4.1016 C   0  0  0  0  0  0  0  0  0  0  0  0
   63.4136  -10.0043   -3.5190 C   0  0  0  0  0  0  0  0  0  0  0  0
   63.0997  -11.2072   -4.1373 C   0  0  0  0  0  0  0  0  0  0  0  0
   62.5832  -11.2344   -5.3487 C   0  0  0  0  0  0  0  0  0  0  0  0
   61.9804  -12.3873   -6.0949 C   0  0  0  0  0  0  0  0  0  0  0  0
   60.4725  -12.4756   -5.7721 C   0  0  0  0  0  0  0  0  0  0  0  0
   60.1085  -12.8049   -4.3977 C   0  0  0  0  0  0  0  0  0  0  0  0
   60.7817  -14.0734   -3.9309 C   0  0  0  0  0  0  0  0  0  0  0  0
   61.6447  -14.6644   -5.0168 C   0  0  0  0  0  0  0  0  0  0  0  0
   62.5871  -13.7134   -5.6788 C   0  0  0  0  0  0  0  0  0  0  0  0
   64.3010  -10.1152   -2.2567 C   0  0  0  0  0  0  0  0  0  0  0  0
   64.5214  -11.2976   -1.7986 F   0  0  0  0  0  0  0  0  0  0  0  0
   63.7807   -9.2265   -1.3425 F   0  0  0  0  0  0  0  0  0  0  0  0
   65.5383   -9.5115   -2.6429 F   0  0  0  0  0  0  0  0  0  0  0  0
  5  6  1  0  0  0
  6  1  1  0  0  0
  1  2  2  0  0  0
  1  3  1  0  0  0
  3 20  1  0  0  0
 20 21  1  0  0  0
 21 22  2  0  0  0
 22 23  1  0  0  0
 23 24  2  0  0  0
 24 33  1  0  0  0
 33 34  1  0  0  0
 33 35  1  0  0  0
 33 36  1  0  0  0
 24 25  1  0  0  0
 25 26  2  0  0  0
 26 27  1  0  0  0
 27 28  1  0  0  0
 28 29  1  0  0  0
 29 30  1  0  0  0
 30 31  1  0  0  0
 31 32  1  0  0  0
  6  7  1  0  0  0
  7  8  2  0  0  0
  8  9  1  0  0  0
  9 10  2  0  0  0
 10 14  1  0  0  0
 14 16  1  0  0  0
 16 17  1  0  0  0
 16 18  2  0  0  0
 16 19  2  0  0  0
 10 11  1  0  0  0
 11 12  1  0  0  0
 11 13  2  0  0  0
 26 21  1  0  0  0
 32 27  1  0  0  0
 13  7  1  0  0  0
  3  4  1  0  0  0
 14 15  1  0  0  0
M  END
> <minimizedAffinity>
-3.02800

> <CNNscore>
0.4500028193

> <CNNaffinity>
5.4112334251

> <CNN_VS>
2.4350702763

> <CNNaffinity_variance>
0.4320113659

$$$$
[H]c1c([H])c(C([H])(C(=O)N([H])C([H])([H])c2c([H])c([H])c(C(F)(F)F)c([H])c2C2([H])C([H])([H])C([H])([H])C([H])([H])C([H])([H])C2([H])[H])C([H])([H])[H])c([H])c(F)c1N([H])S(=O)(=O)C([H])([H])[H]


 36 38  0  0  0  0  0  0  0  0999 V2000
   53.4283   -3.8630   -9.1963 C   0  0  0  0  0  0  0  0  0  0  0  0
   53.0862   -3.3061  -10.0745 O   0  0  0  0  0  0  0  0  0  0  0  0
   53.3604   -4.9681   -8.3394 N   0  0  0  0  0  0  0  0  0  0  0  0
   52.3891   -5.5500   -9.1682 H   0  0  0  0  0  0  0  0  0  0  0  0
   54.6352   -1.8965   -8.9945 C   0  0  0  0  0  0  0  0  0  0  0  0
   54.6986   -3.2738   -8.2931 C   0  0  0  0  0  0  0  0  0  0  0  0
   55.8893   -3.9518   -8.6616 C   0  0  0  0  0  0  0  0  0  0  0  0
   56.7045   -4.5595   -7.7948 C   0  0  0  0  0  0  0  0  0  0  0  0
   57.7499   -5.3056   -8.1352 C   0  0  0  0  0  0  0  0  0  0  0  0
   58.0568   -5.4555   -9.5490 C   0  0  0  0  0  0  0  0  0  0  0  0
   57.2676   -4.8456  -10.3954 C   0  0  0  0  0  0  0  0  0  0  0  0
   57.6404   -4.8928  -11.7469 F   0  0  0  0  0  0  0  0  0  0  0  0
   56.1604   -4.0876  -10.0789 C   0  0  0  0  0  0  0  0  0  0  0  0
   59.0063   -6.4846   -9.6993 N   0  0  0  0  0  0  0  0  0  0  0  0
   58.4939   -7.3889  -10.1627 H   0  0  0  0  0  0  0  0  0  0  0  0
   60.6308   -6.6275   -9.4722 S   0  0  0  0  0  0  0  0  0  0  0  0
   61.1261   -8.3533   -9.4520 C   0  0  0  0  0  0  0  0  0  0  0  0
   61.1051   -5.8267   -8.3246 O   0  0  0  0  0  0  0  0  0  0  0  0
   61.3083   -6.0716  -10.7676 O   0  0  0  0  0  0  0  0  0  0  0  0
   53.2939   -5.9576   -7.5785 C   0  0  0  0  0  0  0  0  0  0  0  0
   52.4782   -6.2263   -6.3665 C   0  0  0  0  0  0  0  0  0  0  0  0
   51.1136   -6.2425   -6.2421 C   0  0  0  0  0  0  0  0  0  0  0  0
   50.4702   -6.0287   -4.9826 C   0  0  0  0  0  0  0  0  0  0  0  0
   51.2543   -5.8156   -3.9443 C   0  0  0  0  0  0  0  0  0  0  0  0
   52.6389   -5.7819   -4.0434 C   0  0  0  0  0  0  0  0  0  0  0  0
   53.2429   -5.9823   -5.1965 C   0  0  0  0  0  0  0  0  0  0  0  0
   54.6998   -6.2026   -5.4761 C   0  0  0  0  0  0  0  0  0  0  0  0
   55.0526   -7.6850   -5.2237 C   0  0  0  0  0  0  0  0  0  0  0  0
   54.9511   -8.1643   -3.8490 C   0  0  0  0  0  0  0  0  0  0  0  0
   55.7496   -7.3050   -2.8981 C   0  0  0  0  0  0  0  0  0  0  0  0
   56.4456   -6.1847   -3.6288 C   0  0  0  0  0  0  0  0  0  0  0  0
   55.5853   -5.3874   -4.5535 C   0  0  0  0  0  0  0  0  0  0  0  0
   50.6661   -5.2505   -2.6298 C   0  0  0  0  0  0  0  0  0  0  0  0
   50.1134   -6.0912   -1.8272 F   0  0  0  0  0  0  0  0  0  0  0  0
   49.8716   -4.1855   -2.9916 F   0  0  0  0  0  0  0  0  0  0  0  0
   51.7812   -4.6313   -1.9835 F   0  0  0  0  0  0  0  0  0  0  0  0
  5  6  1  0  0  0
  6  1  1  0  0  0
  1  2  2  0  0  0
  1  3  1  0  0  0
  3 20  1  0  0  0
 20 21  1  0  0  0
 21 22  2  0  0  0
 22 23  1  0  0  0
 23 24  2  0  0  0
 24 33  1  0  0  0
 33 34  1  0  0  0
 33 35  1  0  0  0
 33 36  1  0  0  0
 24 25  1  0  0  0
 25 26  2  0  0  0
 26 27  1  0  0  0
 27 28  1  0  0  0
 28 29  1  0  0  0
 29 30  1  0  0  0
 30 31  1  0  0  0
 31 32  1  0  0  0
  6  7  1  0  0  0
  7  8  2  0  0  0
  8  9  1  0  0  0
  9 10  2  0  0  0
 10 14  1  0  0  0
 14 16  1  0  0  0
 16 17  1  0  0  0
 16 18  2  0  0  0
 16 19  2  0  0  0
 10 11  1  0  0  0
 11 12  1  0  0  0
 11 13  2  0  0  0
 26 21  1  0  0  0
 32 27  1  0  0  0
 13  7  1  0  0  0
  3  4  1  0  0  0
 14 15  1  0  0  0
M  END
> <minimizedAffinity>
-9.46757

> <CNNscore>
0.4332045913

> <CNNaffinity>
7.1987600327

> <CNN_VS>
3.1185359955

> <CNNaffinity_variance>
0.1561879814

$$$$
[H]c1c([H])c(C([H])(C(=O)N([H])C([H])([H])c2c([H])c([H])c(C(F)(F)F)c([H])c2C2([H])C([H])([H])C([H])([H])C([H])([H])C([H])([H])C2([H])[H])C([H])([H])[H])c([H])c(F)c1N([H])S(=O)(=O)C([H])([H])[H]


 36 38  0  0  0  0  0  0  0  0999 V2000
   55.1015   -7.8219   -6.4157 C   0  0  0  0  0  0  0  0  0  0  0  0
   54.6100   -8.6509   -6.9348 O   0  0  0  0  0  0  0  0  0  0  0  0
   55.8447   -7.3111   -5.3447 N   0  0  0  0  0  0  0  0  0  0  0  0
   55.9745   -8.6055   -4.8186 H   0  0  0  0  0  0  0  0  0  0  0  0
   56.3571   -5.8789   -6.3031 C   0  0  0  0  0  0  0  0  0  0  0  0
   55.1072   -6.3063   -7.1081 C   0  0  0  0  0  0  0  0  0  0  0  0
   53.9714   -5.5829   -6.6610 C   0  0  0  0  0  0  0  0  0  0  0  0
   53.4042   -4.5828   -7.3417 C   0  0  0  0  0  0  0  0  0  0  0  0
   52.2685   -3.9837   -7.0000 C   0  0  0  0  0  0  0  0  0  0  0  0
   51.6001   -4.4192   -5.7838 C   0  0  0  0  0  0  0  0  0  0  0  0
   52.1660   -5.3868   -5.1095 C   0  0  0  0  0  0  0  0  0  0  0  0
   51.5836   -5.7168   -3.8768 F   0  0  0  0  0  0  0  0  0  0  0  0
   53.3271   -6.0482   -5.4489 C   0  0  0  0  0  0  0  0  0  0  0  0
   50.3058   -3.8649   -5.7556 N   0  0  0  0  0  0  0  0  0  0  0  0
   49.8383   -4.0814   -4.7410 H   0  0  0  0  0  0  0  0  0  0  0  0
   49.4072   -2.9254   -6.7660 S   0  0  0  0  0  0  0  0  0  0  0  0
   48.9220   -3.8421   -8.2317 C   0  0  0  0  0  0  0  0  0  0  0  0
   50.0468   -1.6194   -7.0277 O   0  0  0  0  0  0  0  0  0  0  0  0
   48.0489   -2.6652   -6.0356 O   0  0  0  0  0  0  0  0  0  0  0  0
   56.5083   -6.8622   -4.3852 C   0  0  0  0  0  0  0  0  0  0  0  0
   57.8584   -7.2001   -3.8661 C   0  0  0  0  0  0  0  0  0  0  0  0
   58.8747   -7.8662   -4.4997 C   0  0  0  0  0  0  0  0  0  0  0  0
   59.9011   -8.5434   -3.7690 C   0  0  0  0  0  0  0  0  0  0  0  0
   59.8233   -8.4955   -2.4537 C   0  0  0  0  0  0  0  0  0  0  0  0
   58.7988   -7.8384   -1.7856 C   0  0  0  0  0  0  0  0  0  0  0  0
   57.8509   -7.2071   -2.4473 C   0  0  0  0  0  0  0  0  0  0  0  0
   56.7998   -6.2700   -1.9314 C   0  0  0  0  0  0  0  0  0  0  0  0
   56.9717   -4.8879   -2.5994 C   0  0  0  0  0  0  0  0  0  0  0  0
   58.1904   -4.1487   -2.2858 C   0  0  0  0  0  0  0  0  0  0  0  0
   58.3832   -3.9969   -0.7959 C   0  0  0  0  0  0  0  0  0  0  0  0
   57.2567   -4.6448   -0.0313 C   0  0  0  0  0  0  0  0  0  0  0  0
   56.9242   -6.0432   -0.4371 C   0  0  0  0  0  0  0  0  0  0  0  0
   60.6736   -9.4568   -1.5899 C   0  0  0  0  0  0  0  0  0  0  0  0
   60.0417  -10.3594   -0.9248 F   0  0  0  0  0  0  0  0  0  0  0  0
   61.5086   -8.6605   -0.8385 F   0  0  0  0  0  0  0  0  0  0  0  0
   61.5579  -10.0801   -2.5248 F   0  0  0  0  0  0  0  0  0  0  0  0
  5  6  1  0  0  0
  6  1  1  0  0  0
  1  2  2  0  0  0
  1  3  1  0  0  0
  3 20  1  0  0  0
 20 21  1  0  0  0
 21 22  2  0  0  0
 22 23  1  0  0  0
 23 24  2  0  0  0
 24 33  1  0  0  0
 33 34  1  0  0  0
 33 35  1  0  0  0
 33 36  1  0  0  0
 24 25  1  0  0  0
 25 26  2  0  0  0
 26 27  1  0  0  0
 27 28  1  0  0  0
 28 29  1  0  0  0
 29 30  1  0  0  0
 30 31  1  0  0  0
 31 32  1  0  0  0
  6  7  1  0  0  0
  7  8  2  0  0  0
  8  9  1  0  0  0
  9 10  2  0  0  0
 10 14  1  0  0  0
 14 16  1  0  0  0
 16 17  1  0  0  0
 16 18  2  0  0  0
 16 19  2  0  0  0
 10 11  1  0  0  0
 11 12  1  0  0  0
 11 13  2  0  0  0
 26 21  1  0  0  0
 32 27  1  0  0  0
 13  7  1  0  0  0
  3  4  1  0  0  0
 14 15  1  0  0  0
M  END
> <minimizedAffinity>
-2.27971

> <CNNscore>
0.3656713367

> <CNNaffinity>
6.4556121826

> <CNN_VS>
2.3606324196

> <CNNaffinity_variance>
0.8885258436

$$$$
[H]c1c([H])c(C([H])(C(=O)N([H])C([H])([H])c2c([H])c([H])c(C(F)(F)F)c([H])c2C2([H])C([H])([H])C([H])([H])C([H])([H])C([H])([H])C2([H])[H])C([H])([H])[H])c([H])c(F)c1N([H])S(=O)(=O)C([H])([H])[H]


 36 38  0  0  0  0  0  0  0  0999 V2000
   58.4172   -4.8489   -8.5965 C   0  0  0  0  0  0  0  0  0  0  0  0
   57.8313   -4.0323   -8.1626 O   0  0  0  0  0  0  0  0  0  0  0  0
   59.5481   -5.6740   -8.6157 N   0  0  0  0  0  0  0  0  0  0  0  0
   60.0089   -5.0683   -7.4368 H   0  0  0  0  0  0  0  0  0  0  0  0
   59.0151   -6.6653   -9.9031 C   0  0  0  0  0  0  0  0  0  0  0  0
   57.8087   -5.6970   -9.8953 C   0  0  0  0  0  0  0  0  0  0  0  0
   57.8409   -4.8725  -11.0496 C   0  0  0  0  0  0  0  0  0  0  0  0
   58.9491   -4.5985  -11.7441 C   0  0  0  0  0  0  0  0  0  0  0  0
   58.9755   -3.9368  -12.8960 C   0  0  0  0  0  0  0  0  0  0  0  0
   57.7177   -3.4448  -13.4356 C   0  0  0  0  0  0  0  0  0  0  0  0
   56.6359   -3.6992  -12.7455 C   0  0  0  0  0  0  0  0  0  0  0  0
   55.4459   -3.1173  -13.2068 F   0  0  0  0  0  0  0  0  0  0  0  0
   56.5688   -4.4051  -11.5631 C   0  0  0  0  0  0  0  0  0  0  0  0
   57.9273   -3.0291  -14.7647 N   0  0  0  0  0  0  0  0  0  0  0  0
   57.2788   -2.1164  -14.9680 H   0  0  0  0  0  0  0  0  0  0  0  0
   58.9316   -3.4745  -15.9911 S   0  0  0  0  0  0  0  0  0  0  0  0
   59.5053   -2.0385  -16.9037 C   0  0  0  0  0  0  0  0  0  0  0  0
   58.3543   -4.5531  -16.8197 O   0  0  0  0  0  0  0  0  0  0  0  0
   60.2341   -4.0204  -15.3190 O   0  0  0  0  0  0  0  0  0  0  0  0
   60.5607   -6.4067   -8.6268 C   0  0  0  0  0  0  0  0  0  0  0  0
   61.7642   -6.4257   -9.4972 C   0  0  0  0  0  0  0  0  0  0  0  0
   61.8780   -6.0344  -10.8057 C   0  0  0  0  0  0  0  0  0  0  0  0
   62.9126   -6.5390  -11.6548 C   0  0  0  0  0  0  0  0  0  0  0  0
   63.7543   -7.3997  -11.1173 C   0  0  0  0  0  0  0  0  0  0  0  0
   63.6558   -7.8227   -9.7985 C   0  0  0  0  0  0  0  0  0  0  0  0
   62.7106   -7.3616   -9.0055 C   0  0  0  0  0  0  0  0  0  0  0  0
   62.5620   -7.5155   -7.5212 C   0  0  0  0  0  0  0  0  0  0  0  0
   63.5646   -6.5836   -6.8055 C   0  0  0  0  0  0  0  0  0  0  0  0
   64.9831   -6.8785   -6.9814 C   0  0  0  0  0  0  0  0  0  0  0  0
   65.3046   -8.3090   -6.6203 C   0  0  0  0  0  0  0  0  0  0  0  0
   64.0710   -9.0474   -6.1660 C   0  0  0  0  0  0  0  0  0  0  0  0
   62.8815   -8.9247   -7.0609 C   0  0  0  0  0  0  0  0  0  0  0  0
   64.6840   -8.2442  -12.0206 C   0  0  0  0  0  0  0  0  0  0  0  0
   65.0081   -9.4146  -11.5947 F   0  0  0  0  0  0  0  0  0  0  0  0
   65.7463   -7.4303  -12.3453 F   0  0  0  0  0  0  0  0  0  0  0  0
   63.9654   -8.3628  -13.2510 F   0  0  0  0  0  0  0  0  0  0  0  0
  5  6  1  0  0  0
  6  1  1  0  0  0
  1  2  2  0  0  0
  1  3  1  0  0  0
  3 20  1  0  0  0
 20 21  1  0  0  0
 21 22  2  0  0  0
 22 23  1  0  0  0
 23 24  2  0  0  0
 24 33  1  0  0  0
 33 34  1  0  0  0
 33 35  1  0  0  0
 33 36  1  0  0  0
 24 25  1  0  0  0
 25 26  2  0  0  0
 26 27  1  0  0  0
 27 28  1  0  0  0
 28 29  1  0  0  0
 29 30  1  0  0  0
 30 31  1  0  0  0
 31 32  1  0  0  0
  6  7  1  0  0  0
  7  8  2  0  0  0
  8  9  1  0  0  0
  9 10  2  0  0  0
 10 14  1  0  0  0
 14 16  1  0  0  0
 16 17  1  0  0  0
 16 18  2  0  0  0
 16 19  2  0  0  0
 10 11  1  0  0  0
 11 12  1  0  0  0
 11 13  2  0  0  0
 26 21  1  0  0  0
 32 27  1  0  0  0
 13  7  1  0  0  0
  3  4  1  0  0  0
 14 15  1  0  0  0
M  END
> <minimizedAffinity>
-3.64787

> <CNNscore>
0.3016695678

> <CNNaffinity>
5.6459207535

> <CNN_VS>
1.7032024860

> <CNNaffinity_variance>
0.1677957028

$$$$
[H]c1c([H])c(C([H])(C(=O)N([H])C([H])([H])c2c([H])c([H])c(C(F)(F)F)c([H])c2C2([H])C([H])([H])C([H])([H])C([H])([H])C([H])([H])C2([H])[H])C([H])([H])[H])c([H])c(F)c1N([H])S(=O)(=O)C([H])([H])[H]


 36 38  0  0  0  0  0  0  0  0999 V2000
   55.6441   -4.4330   -6.8986 C   0  0  0  0  0  0  0  0  0  0  0  0
   55.8503   -3.3703   -7.0606 O   0  0  0  0  0  0  0  0  0  0  0  0
   55.7908   -5.6144   -6.1617 N   0  0  0  0  0  0  0  0  0  0  0  0
   56.5312   -4.9180   -5.1944 H   0  0  0  0  0  0  0  0  0  0  0  0
   54.8208   -4.1778   -9.0484 C   0  0  0  0  0  0  0  0  0  0  0  0
   54.6267   -5.2412   -7.9418 C   0  0  0  0  0  0  0  0  0  0  0  0
   53.3004   -5.1836   -7.4409 C   0  0  0  0  0  0  0  0  0  0  0  0
   52.6710   -6.2128   -6.8663 C   0  0  0  0  0  0  0  0  0  0  0  0
   51.4818   -6.1393   -6.2785 C   0  0  0  0  0  0  0  0  0  0  0  0
   50.7920   -4.8588   -6.2793 C   0  0  0  0  0  0  0  0  0  0  0  0
   51.4023   -3.8565   -6.8574 C   0  0  0  0  0  0  0  0  0  0  0  0
   50.6801   -2.6585   -6.9627 F   0  0  0  0  0  0  0  0  0  0  0  0
   52.6458   -3.8906   -7.4516 C   0  0  0  0  0  0  0  0  0  0  0  0
   49.7066   -4.9289   -5.3848 N   0  0  0  0  0  0  0  0  0  0  0  0
   48.9063   -5.6015   -5.8344 H   0  0  0  0  0  0  0  0  0  0  0  0
   49.3989   -4.3771   -3.8643 S   0  0  0  0  0  0  0  0  0  0  0  0
   50.8010   -4.6675   -2.7808 C   0  0  0  0  0  0  0  0  0  0  0  0
   48.1000   -4.8581   -3.3497 O   0  0  0  0  0  0  0  0  0  0  0  0
   49.3360   -2.8176   -3.9649 O   0  0  0  0  0  0  0  0  0  0  0  0
   55.9265   -6.6655   -5.4989 C   0  0  0  0  0  0  0  0  0  0  0  0
   56.7381   -6.9842   -4.2963 C   0  0  0  0  0  0  0  0  0  0  0  0
   58.0884   -7.2027   -4.2108 C   0  0  0  0  0  0  0  0  0  0  0  0
   58.6620   -7.9582   -3.1402 C   0  0  0  0  0  0  0  0  0  0  0  0
   57.8283   -8.4347   -2.2368 C   0  0  0  0  0  0  0  0  0  0  0  0
   56.4554   -8.2390   -2.3048 C   0  0  0  0  0  0  0  0  0  0  0  0
   55.9159   -7.5410   -3.2829 C   0  0  0  0  0  0  0  0  0  0  0  0
   54.5109   -7.0349   -3.4213 C   0  0  0  0  0  0  0  0  0  0  0  0
   54.4071   -5.6292   -2.7897 C   0  0  0  0  0  0  0  0  0  0  0  0
   54.6019   -5.5366   -1.3463 C   0  0  0  0  0  0  0  0  0  0  0  0
   53.6859   -6.4755   -0.5982 C   0  0  0  0  0  0  0  0  0  0  0  0
   52.8081   -7.2521   -1.5468 C   0  0  0  0  0  0  0  0  0  0  0  0
   53.5159   -7.9111   -2.6850 C   0  0  0  0  0  0  0  0  0  0  0  0
   58.2979   -9.5254   -1.2453 C   0  0  0  0  0  0  0  0  0  0  0  0
   58.6717  -10.6502   -1.7468 F   0  0  0  0  0  0  0  0  0  0  0  0
   57.3175   -9.6166   -0.2826 F   0  0  0  0  0  0  0  0  0  0  0  0
   59.3926   -8.9215   -0.5514 F   0  0  0  0  0  0  0  0  0  0  0  0
  5  6  1  0  0  0
  6  1  1  0  0  0
  1  2  2  0  0  0
  1  3  1  0  0  0
  3 20  1  0  0  0
 20 21  1  0  0  0
 21 22  2  0  0  0
 22 23  1  0  0  0
 23 24  2  0  0  0
 24 33  1  0  0  0
 33 34  1  0  0  0
 33 35  1  0  0  0
 33 36  1  0  0  0
 24 25  1  0  0  0
 25 26  2  0  0  0
 26 27  1  0  0  0
 27 28  1  0  0  0
 28 29  1  0  0  0
 29 30  1  0  0  0
 30 31  1  0  0  0
 31 32  1  0  0  0
  6  7  1  0  0  0
  7  8  2  0  0  0
  8  9  1  0  0  0
  9 10  2  0  0  0
 10 14  1  0  0  0
 14 16  1  0  0  0
 16 17  1  0  0  0
 16 18  2  0  0  0
 16 19  2  0  0  0
 10 11  1  0  0  0
 11 12  1  0  0  0
 11 13  2  0  0  0
 26 21  1  0  0  0
 32 27  1  0  0  0
 13  7  1  0  0  0
  3  4  1  0  0  0
 14 15  1  0  0  0
M  END
> <minimizedAffinity>
-8.31538

> <CNNscore>
0.2944125235

> <CNNaffinity>
7.1270112991

> <CNN_VS>
2.0982813835

> <CNNaffinity_variance>
0.1380870342

$$$$
[H]c1c([H])c(C([H])(C(=O)N([H])C([H])([H])c2c([H])c([H])c(C(F)(F)F)c([H])c2C2([H])C([H])([H])C([H])([H])C([H])([H])C([H])([H])C2([H])[H])C([H])([H])[H])c([H])c(F)c1N([H])S(=O)(=O)C([H])([H])[H]


 36 38  0  0  0  0  0  0  0  0999 V2000
   54.2917   -4.9359   -7.1854 C   0  0  0  0  0  0  0  0  0  0  0  0
   53.5929   -4.2989   -7.7370 O   0  0  0  0  0  0  0  0  0  0  0  0
   54.5623   -5.9214   -6.2285 N   0  0  0  0  0  0  0  0  0  0  0  0
   53.1858   -6.0928   -6.0170 H   0  0  0  0  0  0  0  0  0  0  0  0
   56.0943   -3.5416   -6.7720 C   0  0  0  0  0  0  0  0  0  0  0  0
   55.9183   -4.8721   -7.5413 C   0  0  0  0  0  0  0  0  0  0  0  0
   56.0849   -4.6535   -8.9333 C   0  0  0  0  0  0  0  0  0  0  0  0
   55.1290   -4.1780   -9.7368 C   0  0  0  0  0  0  0  0  0  0  0  0
   55.3075   -3.8472  -11.0112 C   0  0  0  0  0  0  0  0  0  0  0  0
   56.6266   -4.0391  -11.5934 C   0  0  0  0  0  0  0  0  0  0  0  0
   57.5566   -4.5209  -10.8097 C   0  0  0  0  0  0  0  0  0  0  0  0
   58.7897   -4.8184  -11.4087 F   0  0  0  0  0  0  0  0  0  0  0  0
   57.4136   -4.8485   -9.4783 C   0  0  0  0  0  0  0  0  0  0  0  0
   56.6719   -3.3815  -12.8378 N   0  0  0  0  0  0  0  0  0  0  0  0
   56.7815   -2.2635  -12.6558 H   0  0  0  0  0  0  0  0  0  0  0  0
   56.7141   -3.8520  -14.4151 S   0  0  0  0  0  0  0  0  0  0  0  0
   56.0365   -5.5033  -14.6100 C   0  0  0  0  0  0  0  0  0  0  0  0
   58.0454   -3.6460  -15.0221 O   0  0  0  0  0  0  0  0  0  0  0  0
   55.6877   -2.9477  -15.1732 O   0  0  0  0  0  0  0  0  0  0  0  0
   54.7963   -6.8016   -5.3724 C   0  0  0  0  0  0  0  0  0  0  0  0
   55.8604   -6.9298   -4.3439 C   0  0  0  0  0  0  0  0  0  0  0  0
   57.2157   -7.0225   -4.5244 C   0  0  0  0  0  0  0  0  0  0  0  0
   58.0669   -7.6170   -3.5405 C   0  0  0  0  0  0  0  0  0  0  0  0
   57.4845   -8.0719   -2.4487 C   0  0  0  0  0  0  0  0  0  0  0  0
   56.1129   -8.0019   -2.2445 C   0  0  0  0  0  0  0  0  0  0  0  0
   55.3194   -7.4524   -3.1408 C   0  0  0  0  0  0  0  0  0  0  0  0
   53.8703   -7.0844   -3.0230 C   0  0  0  0  0  0  0  0  0  0  0  0
   53.7494   -5.6073   -2.5878 C   0  0  0  0  0  0  0  0  0  0  0  0
   54.2381   -5.2684   -1.2551 C   0  0  0  0  0  0  0  0  0  0  0  0
   53.6138   -6.1417   -0.1931 C   0  0  0  0  0  0  0  0  0  0  0  0
   52.6445   -7.1261   -0.7969 C   0  0  0  0  0  0  0  0  0  0  0  0
   53.1599   -7.9039   -1.9631 C   0  0  0  0  0  0  0  0  0  0  0  0
   58.2533   -9.0154   -1.4938 C   0  0  0  0  0  0  0  0  0  0  0  0
   57.5530   -9.8412   -0.7981 F   0  0  0  0  0  0  0  0  0  0  0  0
   59.1007   -8.2136   -0.7621 F   0  0  0  0  0  0  0  0  0  0  0  0
   59.1374   -9.7402   -2.3526 F   0  0  0  0  0  0  0  0  0  0  0  0
  5  6  1  0  0  0
  6  1  1  0  0  0
  1  2  2  0  0  0
  1  3  1  0  0  0
  3 20  1  0  0  0
 20 21  1  0  0  0
 21 22  2  0  0  0
 22 23  1  0  0  0
 23 24  2  0  0  0
 24 33  1  0  0  0
 33 34  1  0  0  0
 33 35  1  0  0  0
 33 36  1  0  0  0
 24 25  1  0  0  0
 25 26  2  0  0  0
 26 27  1  0  0  0
 27 28  1  0  0  0
 28 29  1  0  0  0
 29 30  1  0  0  0
 30 31  1  0  0  0
 31 32  1  0  0  0
  6  7  1  0  0  0
  7  8  2  0  0  0
  8  9  1  0  0  0
  9 10  2  0  0  0
 10 14  1  0  0  0
 14 16  1  0  0  0
 16 17  1  0  0  0
 16 18  2  0  0  0
 16 19  2  0  0  0
 10 11  1  0  0  0
 11 12  1  0  0  0
 11 13  2  0  0  0
 26 21  1  0  0  0
 32 27  1  0  0  0
 13  7  1  0  0  0
  3  4  1  0  0  0
 14 15  1  0  0  0
M  END
> <minimizedAffinity>
-8.12268

> <CNNscore>
0.2939288914

> <CNNaffinity>
6.3577837944

> <CNN_VS>
1.8687363863

> <CNNaffinity_variance>
0.2390959710

$$$$
[H]c1c([H])c(C([H])(C(=O)N([H])C([H])([H])c2c([H])c([H])c(C(F)(F)F)c([H])c2C2([H])C([H])([H])C([H])([H])C([H])([H])C([H])([H])C2([H])[H])C([H])([H])[H])c([H])c(F)c1N([H])S(=O)(=O)C([H])([H])[H]


 36 38  0  0  0  0  0  0  0  0999 V2000
   54.8671   -6.6832   -6.9487 C   0  0  0  0  0  0  0  0  0  0  0  0
   54.2534   -7.5740   -7.1164 O   0  0  0  0  0  0  0  0  0  0  0  0
   55.9165   -5.8290   -7.3081 N   0  0  0  0  0  0  0  0  0  0  0  0
   56.1387   -6.5904   -8.4657 H   0  0  0  0  0  0  0  0  0  0  0  0
   54.6820   -4.4082   -6.5556 C   0  0  0  0  0  0  0  0  0  0  0  0
   54.5126   -5.6688   -5.6752 C   0  0  0  0  0  0  0  0  0  0  0  0
   55.5578   -5.7362   -4.7179 C   0  0  0  0  0  0  0  0  0  0  0  0
   55.8719   -4.7437   -3.8803 C   0  0  0  0  0  0  0  0  0  0  0  0
   56.7587   -4.8374   -2.8953 C   0  0  0  0  0  0  0  0  0  0  0  0
   57.4663   -6.0966   -2.7243 C   0  0  0  0  0  0  0  0  0  0  0  0
   57.1697   -7.0616   -3.5562 C   0  0  0  0  0  0  0  0  0  0  0  0
   57.9419   -8.2290   -3.4640 F   0  0  0  0  0  0  0  0  0  0  0  0
   56.2372   -7.0078   -4.5702 C   0  0  0  0  0  0  0  0  0  0  0  0
   58.1349   -6.0753   -1.4851 N   0  0  0  0  0  0  0  0  0  0  0  0
   57.4223   -5.6755   -0.6930 H   0  0  0  0  0  0  0  0  0  0  0  0
   59.6018   -6.5786   -0.9321 S   0  0  0  0  0  0  0  0  0  0  0  0
   59.4542   -8.1343   -0.0477 C   0  0  0  0  0  0  0  0  0  0  0  0
   60.3190   -5.5109   -0.2049 O   0  0  0  0  0  0  0  0  0  0  0  0
   60.4431   -6.9583   -2.1946 O   0  0  0  0  0  0  0  0  0  0  0  0
   56.8552   -5.0710   -7.6350 C   0  0  0  0  0  0  0  0  0  0  0  0
   57.2229   -4.4466   -8.9316 C   0  0  0  0  0  0  0  0  0  0  0  0
   56.6415   -3.3758   -9.5590 C   0  0  0  0  0  0  0  0  0  0  0  0
   56.7511   -3.1811  -10.9718 C   0  0  0  0  0  0  0  0  0  0  0  0
   57.4405   -4.0822  -11.6434 C   0  0  0  0  0  0  0  0  0  0  0  0
   58.0299   -5.1827  -11.0357 C   0  0  0  0  0  0  0  0  0  0  0  0
   57.9402   -5.3702   -9.7351 C   0  0  0  0  0  0  0  0  0  0  0  0
   58.6721   -6.3504   -8.8675 C   0  0  0  0  0  0  0  0  0  0  0  0
   59.8553   -5.6393   -8.1747 C   0  0  0  0  0  0  0  0  0  0  0  0
   60.9333   -5.1595   -9.0336 C   0  0  0  0  0  0  0  0  0  0  0  0
   61.4748   -6.2588   -9.9160 C   0  0  0  0  0  0  0  0  0  0  0  0
   60.7592   -7.5620   -9.6651 C   0  0  0  0  0  0  0  0  0  0  0  0
   59.2675   -7.4889   -9.6732 C   0  0  0  0  0  0  0  0  0  0  0  0
   57.3379   -4.1476  -13.1856 C   0  0  0  0  0  0  0  0  0  0  0  0
   56.3700   -4.8378  -13.6788 F   0  0  0  0  0  0  0  0  0  0  0  0
   58.5901   -4.4980  -13.6389 F   0  0  0  0  0  0  0  0  0  0  0  0
   57.2070   -2.7816  -13.5872 F   0  0  0  0  0  0  0  0  0  0  0  0
  5  6  1  0  0  0
  6  1  1  0  0  0
  1  2  2  0  0  0
  1  3  1  0  0  0
  3 20  1  0  0  0
 20 21  1  0  0  0
 21 22  2  0  0  0
 22 23  1  0  0  0
 23 24  2  0  0  0
 24 33  1  0  0  0
 33 34  1  0  0  0
 33 35  1  0  0  0
 33 36  1  0  0  0
 24 25  1  0  0  0
 25 26  2  0  0  0
 26 27  1  0  0  0
 27 28  1  0  0  0
 28 29  1  0  0  0
 29 30  1  0  0  0
 30 31  1  0  0  0
 31 32  1  0  0  0
  6  7  1  0  0  0
  7  8  2  0  0  0
  8  9  1  0  0  0
  9 10  2  0  0  0
 10 14  1  0  0  0
 14 16  1  0  0  0
 16 17  1  0  0  0
 16 18  2  0  0  0
 16 19  2  0  0  0
 10 11  1  0  0  0
 11 12  1  0  0  0
 11 13  2  0  0  0
 26 21  1  0  0  0
 32 27  1  0  0  0
 13  7  1  0  0  0
  3  4  1  0  0  0
 14 15  1  0  0  0
M  END
> <minimizedAffinity>
-0.91064

> <CNNscore>
0.2818218172

> <CNNaffinity>
6.4310622215

> <CNN_VS>
1.8124136925

> <CNNaffinity_variance>
0.4744002223

$$$$
[H]c1c([H])c(C([H])(C(=O)N([H])C([H])([H])c2c([H])c([H])c(C(F)(F)F)c([H])c2C2([H])C([H])([H])C([H])([H])C([H])([H])C([H])([H])C2([H])[H])C([H])([H])[H])c([H])c(F)c1N([H])S(=O)(=O)C([H])([H])[H]


 36 38  0  0  0  0  0  0  0  0999 V2000
   57.3185   -4.9945   -7.1912 C   0  0  0  0  0  0  0  0  0  0  0  0
   57.9225   -4.1595   -7.5602 O   0  0  0  0  0  0  0  0  0  0  0  0
   56.9571   -5.8991   -6.1855 N   0  0  0  0  0  0  0  0  0  0  0  0
   57.8405   -5.2647   -5.2988 H   0  0  0  0  0  0  0  0  0  0  0  0
   56.8848   -5.2179   -9.4553 C   0  0  0  0  0  0  0  0  0  0  0  0
   56.1421   -5.6536   -8.1702 C   0  0  0  0  0  0  0  0  0  0  0  0
   54.9426   -4.9092   -8.0270 C   0  0  0  0  0  0  0  0  0  0  0  0
   54.7439   -3.6990   -8.5571 C   0  0  0  0  0  0  0  0  0  0  0  0
   53.5862   -3.0471   -8.5414 C   0  0  0  0  0  0  0  0  0  0  0  0
   52.4536   -3.6726   -7.8769 C   0  0  0  0  0  0  0  0  0  0  0  0
   52.6548   -4.8500   -7.3435 C   0  0  0  0  0  0  0  0  0  0  0  0
   51.5958   -5.3912   -6.5997 F   0  0  0  0  0  0  0  0  0  0  0  0
   53.8329   -5.5657   -7.3650 C   0  0  0  0  0  0  0  0  0  0  0  0
   51.2845   -2.9620   -8.2103 N   0  0  0  0  0  0  0  0  0  0  0  0
   51.2079   -2.8969   -9.3439 H   0  0  0  0  0  0  0  0  0  0  0  0
   50.0114   -2.3353   -7.3751 S   0  0  0  0  0  0  0  0  0  0  0  0
   48.4756   -3.1333   -7.8533 C   0  0  0  0  0  0  0  0  0  0  0  0
   49.9894   -0.8585   -7.4190 O   0  0  0  0  0  0  0  0  0  0  0  0
   50.2001   -2.7759   -5.8864 O   0  0  0  0  0  0  0  0  0  0  0  0
   56.6399   -6.7036   -5.2830 C   0  0  0  0  0  0  0  0  0  0  0  0
   57.2869   -7.0556   -3.9931 C   0  0  0  0  0  0  0  0  0  0  0  0
   58.6139   -7.2834   -3.7375 C   0  0  0  0  0  0  0  0  0  0  0  0
   59.0412   -8.0676   -2.6201 C   0  0  0  0  0  0  0  0  0  0  0  0
   58.0956   -8.5613   -1.8453 C   0  0  0  0  0  0  0  0  0  0  0  0
   56.7437   -8.3565   -2.0870 C   0  0  0  0  0  0  0  0  0  0  0  0
   56.3381   -7.6323   -3.1097 C   0  0  0  0  0  0  0  0  0  0  0  0
   54.9644   -7.1154   -3.4176 C   0  0  0  0  0  0  0  0  0  0  0  0
   54.8557   -5.6434   -2.9624 C   0  0  0  0  0  0  0  0  0  0  0  0
   54.9413   -5.3866   -1.5283 C   0  0  0  0  0  0  0  0  0  0  0  0
   53.9416   -6.2112   -0.7531 C   0  0  0  0  0  0  0  0  0  0  0  0
   53.1161   -7.0743   -1.6733 C   0  0  0  0  0  0  0  0  0  0  0  0
   53.8888   -7.8774   -2.6676 C   0  0  0  0  0  0  0  0  0  0  0  0
   58.4293   -9.6781   -0.8281 C   0  0  0  0  0  0  0  0  0  0  0  0
   59.4155   -9.4658   -0.0289 F   0  0  0  0  0  0  0  0  0  0  0  0
   58.5112  -10.8457   -1.5534 F   0  0  0  0  0  0  0  0  0  0  0  0
   57.2252   -9.8371   -0.0734 F   0  0  0  0  0  0  0  0  0  0  0  0
  5  6  1  0  0  0
  6  1  1  0  0  0
  1  2  2  0  0  0
  1  3  1  0  0  0
  3 20  1  0  0  0
 20 21  1  0  0  0
 21 22  2  0  0  0
 22 23  1  0  0  0
 23 24  2  0  0  0
 24 33  1  0  0  0
 33 34  1  0  0  0
 33 35  1  0  0  0
 33 36  1  0  0  0
 24 25  1  0  0  0
 25 26  2  0  0  0
 26 27  1  0  0  0
 27 28  1  0  0  0
 28 29  1  0  0  0
 29 30  1  0  0  0
 30 31  1  0  0  0
 31 32  1  0  0  0
  6  7  1  0  0  0
  7  8  2  0  0  0
  8  9  1  0  0  0
  9 10  2  0  0  0
 10 14  1  0  0  0
 14 16  1  0  0  0
 16 17  1  0  0  0
 16 18  2  0  0  0
 16 19  2  0  0  0
 10 11  1  0  0  0
 11 12  1  0  0  0
 11 13  2  0  0  0
 26 21  1  0  0  0
 32 27  1  0  0  0
 13  7  1  0  0  0
  3  4  1  0  0  0
 14 15  1  0  0  0
M  END
> <minimizedAffinity>
-5.18025

> <CNNscore>
0.2542504966

> <CNNaffinity>
6.8807306290

> <CNN_VS>
1.7494292259

> <CNNaffinity_variance>
0.4321138263

$$$$
[H]OC(=O)C([H])([H])N(C([H])([H])c1c([H])c([H])c([H])c(OC([H])([H])C([H])([H])c2nc(-c3c([H])c([H])c([H])c([H])c3[H])oc2C([H])([H])[H])c1[H])C([H])([H])c1c([H])c([H])c2c([H])c([H])c([H])c([H])c2c1[H]


 39 43  0  0  0  0  0  0  0  0999 V2000
   56.8699   -4.4734  -10.6482 C   0  0  0  0  0  0  0  0  0  0  0  0
   58.0779   -5.0859  -10.4685 C   0  0  0  0  0  0  0  0  0  0  0  0
   58.4650   -5.4739   -9.2079 C   0  0  0  0  0  0  0  0  0  0  0  0
   57.6814   -5.2737   -8.0940 C   0  0  0  0  0  0  0  0  0  0  0  0
   56.4593   -4.6600   -8.2401 C   0  0  0  0  0  0  0  0  0  0  0  0
   56.0846   -4.2775   -9.5010 C   0  0  0  0  0  0  0  0  0  0  0  0
   56.4121   -4.0573  -11.8546 O   0  0  0  0  0  0  0  0  0  0  0  0
   57.0033   -3.5502  -12.9716 C   0  0  0  0  0  0  0  0  0  0  0  0
   56.3635   -3.8166  -14.2938 C   0  0  0  0  0  0  0  0  0  0  0  0
   55.5330   -2.9164  -17.1831 C   0  0  0  0  0  0  0  0  0  0  0  0
   56.9215   -3.0606  -16.7095 C   0  0  0  0  0  0  0  0  0  0  0  0
   58.0215   -2.8431  -17.3948 O   0  0  0  0  0  0  0  0  0  0  0  0
   59.0728   -3.0732  -16.6486 C   0  0  0  0  0  0  0  0  0  0  0  0
   58.6140   -3.4517  -15.4414 N   0  0  0  0  0  0  0  0  0  0  0  0
   57.2799   -3.4597  -15.4292 C   0  0  0  0  0  0  0  0  0  0  0  0
   60.4731   -2.9493  -17.0299 C   0  0  0  0  0  0  0  0  0  0  0  0
   60.8245   -2.5096  -18.2891 C   0  0  0  0  0  0  0  0  0  0  0  0
   62.1557   -2.3844  -18.6777 C   0  0  0  0  0  0  0  0  0  0  0  0
   63.1572   -2.7052  -17.7904 C   0  0  0  0  0  0  0  0  0  0  0  0
   62.8346   -3.1426  -16.5381 C   0  0  0  0  0  0  0  0  0  0  0  0
   61.4935   -3.2632  -16.1621 C   0  0  0  0  0  0  0  0  0  0  0  0
   55.6204   -4.4383   -7.0569 C   0  0  0  0  0  0  0  0  0  0  0  0
   55.0280   -5.5965   -6.4792 N   0  0  0  0  0  0  0  0  0  0  0  0
   55.0352   -5.5748   -5.0602 C   0  0  0  0  0  0  0  0  0  0  0  0
   56.2741   -6.0370   -4.4208 C   0  0  0  0  0  0  0  0  0  0  0  0
   56.7296   -5.6609   -3.3276 O   0  0  0  0  0  0  0  0  0  0  0  0
   57.0362   -7.0055   -5.1033 O   0  0  0  0  0  0  0  0  0  0  0  0
   57.9198   -6.7406   -5.5150 H   0  0  0  0  0  0  0  0  0  0  0  0
   53.7959   -5.9844   -7.0985 C   0  0  0  0  0  0  0  0  0  0  0  0
   52.6722   -5.0709   -6.9146 C   0  0  0  0  0  0  0  0  0  0  0  0
   52.3296   -4.0355   -7.7532 C   0  0  0  0  0  0  0  0  0  0  0  0
   51.2426   -3.2174   -7.4857 C   0  0  0  0  0  0  0  0  0  0  0  0
   50.4527   -3.3981   -6.3720 C   0  0  0  0  0  0  0  0  0  0  0  0
   49.3799   -2.5641   -6.1382 C   0  0  0  0  0  0  0  0  0  0  0  0
   48.5833   -2.7367   -5.0239 C   0  0  0  0  0  0  0  0  0  0  0  0
   48.9004   -3.7652   -4.1637 C   0  0  0  0  0  0  0  0  0  0  0  0
   49.9869   -4.6084   -4.4026 C   0  0  0  0  0  0  0  0  0  0  0  0
   50.7824   -4.4325   -5.5199 C   0  0  0  0  0  0  0  0  0  0  0  0
   51.8652   -5.2440   -5.7904 C   0  0  0  0  0  0  0  0  0  0  0  0
 10 11  1  0  0  0
 11 12  1  0  0  0
 12 13  1  0  0  0
 13 16  1  0  0  0
 16 17  2  0  0  0
 17 18  1  0  0  0
 18 19  2  0  0  0
 19 20  1  0  0  0
 20 21  2  0  0  0
 13 14  2  0  0  0
 14 15  1  0  0  0
 15  9  1  0  0  0
  9  8  1  0  0  0
  8  7  1  0  0  0
  7  1  1  0  0  0
  1  2  2  0  0  0
  2  3  1  0  0  0
  3  4  2  0  0  0
  4  5  1  0  0  0
  5 22  1  0  0  0
 22 23  1  0  0  0
 23 24  1  0  0  0
 24 25  1  0  0  0
 25 26  2  0  0  0
 25 27  1  0  0  0
 23 29  1  0  0  0
 29 30  1  0  0  0
 30 31  2  0  0  0
 31 32  1  0  0  0
 32 33  2  0  0  0
 33 34  1  0  0  0
 34 35  2  0  0  0
 35 36  1  0  0  0
 36 37  2  0  0  0
 37 38  1  0  0  0
 38 39  2  0  0  0
  5  6  2  0  0  0
 15 11  2  0  0  0
  6  1  1  0  0  0
 21 16  1  0  0  0
 39 30  1  0  0  0
 38 33  1  0  0  0
 27 28  1  0  0  0
M  END
> <minimizedAffinity>
-10.66899

> <CNNscore>
0.1929615587

> <CNNaffinity>
6.0410571098

> <CNN_VS>
1.1656918526

> <CNNaffinity_variance>
0.2496844232

$$$$
[H]OC(=O)C([H])([H])N(C([H])([H])c1c([H])c([H])c([H])c(OC([H])([H])C([H])([H])c2nc(-c3c([H])c([H])c([H])c([H])c3[H])oc2C([H])([H])[H])c1[H])C([H])([H])c1c([H])c([H])c2c([H])c([H])c([H])c([H])c2c1[H]


 39 43  0  0  0  0  0  0  0  0999 V2000
   55.1664   -5.6438   -5.1730 C   0  0  0  0  0  0  0  0  0  0  0  0
   56.2566   -5.0641   -4.5883 C   0  0  0  0  0  0  0  0  0  0  0  0
   56.2349   -4.7702   -3.2457 C   0  0  0  0  0  0  0  0  0  0  0  0
   55.1488   -5.0363   -2.4429 C   0  0  0  0  0  0  0  0  0  0  0  0
   54.0350   -5.6198   -3.0001 C   0  0  0  0  0  0  0  0  0  0  0  0
   54.0683   -5.9076   -4.3390 C   0  0  0  0  0  0  0  0  0  0  0  0
   55.1027   -5.9642   -6.4889 O   0  0  0  0  0  0  0  0  0  0  0  0
   54.6655   -5.3167   -7.6042 C   0  0  0  0  0  0  0  0  0  0  0  0
   55.4110   -4.1053   -8.0571 C   0  0  0  0  0  0  0  0  0  0  0  0
   58.2931   -5.3265   -8.2822 C   0  0  0  0  0  0  0  0  0  0  0  0
   57.4583   -4.9147   -9.4253 C   0  0  0  0  0  0  0  0  0  0  0  0
   57.7665   -4.9859  -10.7008 O   0  0  0  0  0  0  0  0  0  0  0  0
   56.7800   -4.5293  -11.4311 C   0  0  0  0  0  0  0  0  0  0  0  0
   55.8090   -4.1549  -10.5778 N   0  0  0  0  0  0  0  0  0  0  0  0
   56.1839   -4.3751   -9.3165 C   0  0  0  0  0  0  0  0  0  0  0  0
   56.7234   -4.4365  -12.8836 C   0  0  0  0  0  0  0  0  0  0  0  0
   57.4833   -3.5057  -13.5607 C   0  0  0  0  0  0  0  0  0  0  0  0
   57.4452   -3.3965  -14.9482 C   0  0  0  0  0  0  0  0  0  0  0  0
   56.6310   -4.2343  -15.6752 C   0  0  0  0  0  0  0  0  0  0  0  0
   55.8693   -5.1640  -15.0277 C   0  0  0  0  0  0  0  0  0  0  0  0
   55.9182   -5.2619  -13.6340 C   0  0  0  0  0  0  0  0  0  0  0  0
   52.8713   -5.9019   -2.1522 C   0  0  0  0  0  0  0  0  0  0  0  0
   51.9192   -6.8217   -2.6755 N   0  0  0  0  0  0  0  0  0  0  0  0
   52.1133   -8.1476   -2.2084 C   0  0  0  0  0  0  0  0  0  0  0  0
   52.9339   -8.2845   -0.9978 C   0  0  0  0  0  0  0  0  0  0  0  0
   52.5335   -8.2454    0.1779 O   0  0  0  0  0  0  0  0  0  0  0  0
   54.3183   -8.4802   -1.1691 O   0  0  0  0  0  0  0  0  0  0  0  0
   54.9571   -7.7344   -0.9321 H   0  0  0  0  0  0  0  0  0  0  0  0
   50.5723   -6.3344   -2.6510 C   0  0  0  0  0  0  0  0  0  0  0  0
   50.2500   -5.2958   -3.6248 C   0  0  0  0  0  0  0  0  0  0  0  0
   49.2096   -4.4002   -3.5336 C   0  0  0  0  0  0  0  0  0  0  0  0
   48.9832   -3.4516   -4.5190 C   0  0  0  0  0  0  0  0  0  0  0  0
   49.7845   -3.3565   -5.6352 C   0  0  0  0  0  0  0  0  0  0  0  0
   49.5285   -2.4004   -6.5952 C   0  0  0  0  0  0  0  0  0  0  0  0
   50.3254   -2.2985   -7.7178 C   0  0  0  0  0  0  0  0  0  0  0  0
   51.3761   -3.1815   -7.8392 C   0  0  0  0  0  0  0  0  0  0  0  0
   51.6335   -4.1485   -6.8658 C   0  0  0  0  0  0  0  0  0  0  0  0
   50.8332   -4.2475   -5.7426 C   0  0  0  0  0  0  0  0  0  0  0  0
   51.0543   -5.1898   -4.7592 C   0  0  0  0  0  0  0  0  0  0  0  0
 10 11  1  0  0  0
 11 12  1  0  0  0
 12 13  1  0  0  0
 13 16  1  0  0  0
 16 17  2  0  0  0
 17 18  1  0  0  0
 18 19  2  0  0  0
 19 20  1  0  0  0
 20 21  2  0  0  0
 13 14  2  0  0  0
 14 15  1  0  0  0
 15  9  1  0  0  0
  9  8  1  0  0  0
  8  7  1  0  0  0
  7  1  1  0  0  0
  1  2  2  0  0  0
  2  3  1  0  0  0
  3  4  2  0  0  0
  4  5  1  0  0  0
  5 22  1  0  0  0
 22 23  1  0  0  0
 23 24  1  0  0  0
 24 25  1  0  0  0
 25 26  2  0  0  0
 25 27  1  0  0  0
 23 29  1  0  0  0
 29 30  1  0  0  0
 30 31  2  0  0  0
 31 32  1  0  0  0
 32 33  2  0  0  0
 33 34  1  0  0  0
 34 35  2  0  0  0
 35 36  1  0  0  0
 36 37  2  0  0  0
 37 38  1  0  0  0
 38 39  2  0  0  0
  5  6  2  0  0  0
 15 11  2  0  0  0
  6  1  1  0  0  0
 21 16  1  0  0  0
 39 30  1  0  0  0
 38 33  1  0  0  0
 27 28  1  0  0  0
M  END
> <minimizedAffinity>
-10.39027

> <CNNscore>
0.1820009202

> <CNNaffinity>
6.7729063034

> <CNN_VS>
1.2326751947

> <CNNaffinity_variance>
0.4095837176

$$$$
[H]OC(=O)C([H])([H])N(C([H])([H])c1c([H])c([H])c([H])c(OC([H])([H])C([H])([H])c2nc(-c3c([H])c([H])c([H])c([H])c3[H])oc2C([H])([H])[H])c1[H])C([H])([H])c1c([H])c([H])c2c([H])c([H])c([H])c([H])c2c1[H]


 39 43  0  0  0  0  0  0  0  0999 V2000
   56.8722   -4.2795  -11.4764 C   0  0  0  0  0  0  0  0  0  0  0  0
   58.0363   -4.9311  -11.1818 C   0  0  0  0  0  0  0  0  0  0  0  0
   58.2868   -5.3297   -9.8903 C   0  0  0  0  0  0  0  0  0  0  0  0
   57.4063   -5.1020   -8.8570 C   0  0  0  0  0  0  0  0  0  0  0  0
   56.2249   -4.4488   -9.1195 C   0  0  0  0  0  0  0  0  0  0  0  0
   55.9865   -4.0561  -10.4101 C   0  0  0  0  0  0  0  0  0  0  0  0
   56.5471   -3.8504  -12.7207 O   0  0  0  0  0  0  0  0  0  0  0  0
   57.2542   -3.6221  -13.8619 C   0  0  0  0  0  0  0  0  0  0  0  0
   56.5293   -3.6739  -15.1658 C   0  0  0  0  0  0  0  0  0  0  0  0
   57.5030   -5.7642  -17.2944 C   0  0  0  0  0  0  0  0  0  0  0  0
   57.8930   -4.3429  -17.2662 C   0  0  0  0  0  0  0  0  0  0  0  0
   58.6927   -3.7215  -18.1035 O   0  0  0  0  0  0  0  0  0  0  0  0
   58.8083   -2.4608  -17.7682 C   0  0  0  0  0  0  0  0  0  0  0  0
   58.0481   -2.2815  -16.6723 N   0  0  0  0  0  0  0  0  0  0  0  0
   57.4574   -3.4248  -16.3203 C   0  0  0  0  0  0  0  0  0  0  0  0
   59.5987   -1.4361  -18.4366 C   0  0  0  0  0  0  0  0  0  0  0  0
   59.0833   -0.1744  -18.6480 C   0  0  0  0  0  0  0  0  0  0  0  0
   59.8184    0.8213  -19.2858 C   0  0  0  0  0  0  0  0  0  0  0  0
   61.0952    0.5514  -19.7222 C   0  0  0  0  0  0  0  0  0  0  0  0
   61.6275   -0.6901  -19.5245 C   0  0  0  0  0  0  0  0  0  0  0  0
   60.8773   -1.6797  -18.8823 C   0  0  0  0  0  0  0  0  0  0  0  0
   55.2833   -4.1978   -8.0226 C   0  0  0  0  0  0  0  0  0  0  0  0
   55.0671   -5.2764   -7.1193 N   0  0  0  0  0  0  0  0  0  0  0  0
   55.3891   -4.9491   -5.7765 C   0  0  0  0  0  0  0  0  0  0  0  0
   56.0540   -6.0065   -5.0034 C   0  0  0  0  0  0  0  0  0  0  0  0
   56.2959   -7.1639   -5.3853 O   0  0  0  0  0  0  0  0  0  0  0  0
   56.4655   -5.6933   -3.6931 O   0  0  0  0  0  0  0  0  0  0  0  0
   55.9746   -6.0994   -2.9092 H   0  0  0  0  0  0  0  0  0  0  0  0
   53.8238   -5.9586   -7.3223 C   0  0  0  0  0  0  0  0  0  0  0  0
   52.7012   -5.4971   -6.5112 C   0  0  0  0  0  0  0  0  0  0  0  0
   52.3029   -6.0315   -5.3077 C   0  0  0  0  0  0  0  0  0  0  0  0
   51.2148   -5.5229   -4.6151 C   0  0  0  0  0  0  0  0  0  0  0  0
   50.4797   -4.4610   -5.0934 C   0  0  0  0  0  0  0  0  0  0  0  0
   49.4031   -3.9823   -4.3772 C   0  0  0  0  0  0  0  0  0  0  0  0
   48.6597   -2.9191   -4.8493 C   0  0  0  0  0  0  0  0  0  0  0  0
   49.0328   -2.3615   -6.0527 C   0  0  0  0  0  0  0  0  0  0  0  0
   50.1233   -2.8477   -6.7760 C   0  0  0  0  0  0  0  0  0  0  0  0
   50.8658   -3.9127   -6.2998 C   0  0  0  0  0  0  0  0  0  0  0  0
   51.9494   -4.4224   -6.9853 C   0  0  0  0  0  0  0  0  0  0  0  0
 10 11  1  0  0  0
 11 12  1  0  0  0
 12 13  1  0  0  0
 13 16  1  0  0  0
 16 17  2  0  0  0
 17 18  1  0  0  0
 18 19  2  0  0  0
 19 20  1  0  0  0
 20 21  2  0  0  0
 13 14  2  0  0  0
 14 15  1  0  0  0
 15  9  1  0  0  0
  9  8  1  0  0  0
  8  7  1  0  0  0
  7  1  1  0  0  0
  1  2  2  0  0  0
  2  3  1  0  0  0
  3  4  2  0  0  0
  4  5  1  0  0  0
  5 22  1  0  0  0
 22 23  1  0  0  0
 23 24  1  0  0  0
 24 25  1  0  0  0
 25 26  2  0  0  0
 25 27  1  0  0  0
 23 29  1  0  0  0
 29 30  1  0  0  0
 30 31  2  0  0  0
 31 32  1  0  0  0
 32 33  2  0  0  0
 33 34  1  0  0  0
 34 35  2  0  0  0
 35 36  1  0  0  0
 36 37  2  0  0  0
 37 38  1  0  0  0
 38 39  2  0  0  0
  5  6  2  0  0  0
 15 11  2  0  0  0
  6  1  1  0  0  0
 21 16  1  0  0  0
 39 30  1  0  0  0
 38 33  1  0  0  0
 27 28  1  0  0  0
M  END
> <minimizedAffinity>
-9.17784

> <CNNscore>
0.1777656525

> <CNNaffinity>
5.9555964470

> <CNN_VS>
1.0587004423

> <CNNaffinity_variance>
0.1074569449

$$$$
[H]OC(=O)C([H])([H])N(C([H])([H])c1c([H])c([H])c([H])c(OC([H])([H])C([H])([H])c2nc(-c3c([H])c([H])c([H])c([H])c3[H])oc2C([H])([H])[H])c1[H])C([H])([H])c1c([H])c([H])c2c([H])c([H])c([H])c([H])c2c1[H]


 39 43  0  0  0  0  0  0  0  0999 V2000
   56.7852   -4.1784  -11.2761 C   0  0  0  0  0  0  0  0  0  0  0  0
   57.9595   -4.8611  -11.1288 C   0  0  0  0  0  0  0  0  0  0  0  0
   58.3295   -5.3217   -9.8877 C   0  0  0  0  0  0  0  0  0  0  0  0
   57.5613   -5.1273   -8.7621 C   0  0  0  0  0  0  0  0  0  0  0  0
   56.3731   -4.4441   -8.8757 C   0  0  0  0  0  0  0  0  0  0  0  0
   56.0151   -3.9896  -10.1175 C   0  0  0  0  0  0  0  0  0  0  0  0
   56.3463   -3.6883  -12.4616 O   0  0  0  0  0  0  0  0  0  0  0  0
   56.3760   -4.1400  -13.7459 C   0  0  0  0  0  0  0  0  0  0  0  0
   57.4195   -3.5950  -14.6637 C   0  0  0  0  0  0  0  0  0  0  0  0
   58.8716   -3.7544  -17.4412 C   0  0  0  0  0  0  0  0  0  0  0  0
   57.4779   -3.3183  -17.2403 C   0  0  0  0  0  0  0  0  0  0  0  0
   56.6253   -2.9320  -18.1627 O   0  0  0  0  0  0  0  0  0  0  0  0
   55.4780   -2.6171  -17.6153 C   0  0  0  0  0  0  0  0  0  0  0  0
   55.6149   -2.8140  -16.2911 N   0  0  0  0  0  0  0  0  0  0  0  0
   56.8433   -3.2506  -16.0075 C   0  0  0  0  0  0  0  0  0  0  0  0
   54.2761   -2.1448  -18.2890 C   0  0  0  0  0  0  0  0  0  0  0  0
   53.7201   -0.9246  -17.9661 C   0  0  0  0  0  0  0  0  0  0  0  0
   52.5710   -0.4522  -18.5946 C   0  0  0  0  0  0  0  0  0  0  0  0
   51.9639   -1.2144  -19.5661 C   0  0  0  0  0  0  0  0  0  0  0  0
   52.4953   -2.4258  -19.9034 C   0  0  0  0  0  0  0  0  0  0  0  0
   53.6497   -2.8869  -19.2637 C   0  0  0  0  0  0  0  0  0  0  0  0
   55.5511   -4.2283   -7.6797 C   0  0  0  0  0  0  0  0  0  0  0  0
   55.2421   -5.3856   -6.9109 N   0  0  0  0  0  0  0  0  0  0  0  0
   55.5757   -5.2459   -5.5386 C   0  0  0  0  0  0  0  0  0  0  0  0
   56.2129   -6.4129   -4.9143 C   0  0  0  0  0  0  0  0  0  0  0  0
   55.7067   -7.1713   -4.0702 O   0  0  0  0  0  0  0  0  0  0  0  0
   57.5330   -6.7173   -5.3004 O   0  0  0  0  0  0  0  0  0  0  0  0
   58.2882   -6.5632   -4.6474 H   0  0  0  0  0  0  0  0  0  0  0  0
   53.9511   -5.9386   -7.1937 C   0  0  0  0  0  0  0  0  0  0  0  0
   52.8159   -5.0397   -7.0091 C   0  0  0  0  0  0  0  0  0  0  0  0
   52.4559   -4.0125   -7.8504 C   0  0  0  0  0  0  0  0  0  0  0  0
   51.3590   -3.2081   -7.5820 C   0  0  0  0  0  0  0  0  0  0  0  0
   50.5759   -3.3950   -6.4644 C   0  0  0  0  0  0  0  0  0  0  0  0
   49.4927   -2.5748   -6.2297 C   0  0  0  0  0  0  0  0  0  0  0  0
   48.7029   -2.7537   -5.1117 C   0  0  0  0  0  0  0  0  0  0  0  0
   49.0373   -3.7743   -4.2486 C   0  0  0  0  0  0  0  0  0  0  0  0
   50.1343   -4.6036   -4.4884 C   0  0  0  0  0  0  0  0  0  0  0  0
   50.9230   -4.4215   -5.6095 C   0  0  0  0  0  0  0  0  0  0  0  0
   52.0156   -5.2192   -5.8810 C   0  0  0  0  0  0  0  0  0  0  0  0
 10 11  1  0  0  0
 11 12  1  0  0  0
 12 13  1  0  0  0
 13 16  1  0  0  0
 16 17  2  0  0  0
 17 18  1  0  0  0
 18 19  2  0  0  0
 19 20  1  0  0  0
 20 21  2  0  0  0
 13 14  2  0  0  0
 14 15  1  0  0  0
 15  9  1  0  0  0
  9  8  1  0  0  0
  8  7  1  0  0  0
  7  1  1  0  0  0
  1  2  2  0  0  0
  2  3  1  0  0  0
  3  4  2  0  0  0
  4  5  1  0  0  0
  5 22  1  0  0  0
 22 23  1  0  0  0
 23 24  1  0  0  0
 24 25  1  0  0  0
 25 26  2  0  0  0
 25 27  1  0  0  0
 23 29  1  0  0  0
 29 30  1  0  0  0
 30 31  2  0  0  0
 31 32  1  0  0  0
 32 33  2  0  0  0
 33 34  1  0  0  0
 34 35  2  0  0  0
 35 36  1  0  0  0
 36 37  2  0  0  0
 37 38  1  0  0  0
 38 39  2  0  0  0
  5  6  2  0  0  0
 15 11  2  0  0  0
  6  1  1  0  0  0
 21 16  1  0  0  0
 39 30  1  0  0  0
 38 33  1  0  0  0
 27 28  1  0  0  0
M  END
> <minimizedAffinity>
-10.63456

> <CNNscore>
0.1686670780

> <CNNaffinity>
6.0848054886

> <CNN_VS>
1.0263063908

> <CNNaffinity_variance>
0.3533687294

$$$$
[H]OC(=O)C([H])([H])N(C([H])([H])c1c([H])c([H])c([H])c(OC([H])([H])C([H])([H])c2nc(-c3c([H])c([H])c([H])c([H])c3[H])oc2C([H])([H])[H])c1[H])C([H])([H])c1c([H])c([H])c2c([H])c([H])c([H])c([H])c2c1[H]


 39 43  0  0  0  0  0  0  0  0999 V2000
   58.1649   -5.1019  -10.0798 C   0  0  0  0  0  0  0  0  0  0  0  0
   57.4969   -4.6931  -11.1993 C   0  0  0  0  0  0  0  0  0  0  0  0
   56.2382   -4.1528  -11.0833 C   0  0  0  0  0  0  0  0  0  0  0  0
   55.6032   -3.9984   -9.8718 C   0  0  0  0  0  0  0  0  0  0  0  0
   56.2481   -4.3995   -8.7252 C   0  0  0  0  0  0  0  0  0  0  0  0
   57.5017   -4.9368   -8.8534 C   0  0  0  0  0  0  0  0  0  0  0  0
   59.4062   -5.6465  -10.1042 O   0  0  0  0  0  0  0  0  0  0  0  0
   60.1149   -6.4344   -9.2489 C   0  0  0  0  0  0  0  0  0  0  0  0
   61.3598   -7.0855   -9.7537 C   0  0  0  0  0  0  0  0  0  0  0  0
   63.1750   -9.2846   -8.4431 C   0  0  0  0  0  0  0  0  0  0  0  0
   63.3207   -7.8329   -8.2322 C   0  0  0  0  0  0  0  0  0  0  0  0
   64.2107   -7.2245   -7.4808 O   0  0  0  0  0  0  0  0  0  0  0  0
   64.0382   -5.9274   -7.5350 C   0  0  0  0  0  0  0  0  0  0  0  0
   62.9944   -5.7107   -8.3563 N   0  0  0  0  0  0  0  0  0  0  0  0
   62.5128   -6.8668   -8.8161 C   0  0  0  0  0  0  0  0  0  0  0  0
   64.8131   -4.9022   -6.8494 C   0  0  0  0  0  0  0  0  0  0  0  0
   64.8848   -3.6194   -7.3510 C   0  0  0  0  0  0  0  0  0  0  0  0
   65.6201   -2.6227   -6.7149 C   0  0  0  0  0  0  0  0  0  0  0  0
   66.2984   -2.9130   -5.5535 C   0  0  0  0  0  0  0  0  0  0  0  0
   66.2427   -4.1756   -5.0371 C   0  0  0  0  0  0  0  0  0  0  0  0
   65.5002   -5.1659   -5.6870 C   0  0  0  0  0  0  0  0  0  0  0  0
   55.5759   -4.2431   -7.4304 C   0  0  0  0  0  0  0  0  0  0  0  0
   55.2035   -5.4451   -6.7651 N   0  0  0  0  0  0  0  0  0  0  0  0
   55.4478   -5.4048   -5.3677 C   0  0  0  0  0  0  0  0  0  0  0  0
   55.6144   -6.7080   -4.7109 C   0  0  0  0  0  0  0  0  0  0  0  0
   56.6882   -7.2845   -4.4684 O   0  0  0  0  0  0  0  0  0  0  0  0
   54.4479   -7.3876   -4.3085 O   0  0  0  0  0  0  0  0  0  0  0  0
   54.1624   -8.2189   -4.8062 H   0  0  0  0  0  0  0  0  0  0  0  0
   53.9275   -5.9564   -7.1686 C   0  0  0  0  0  0  0  0  0  0  0  0
   52.7912   -5.0589   -6.9834 C   0  0  0  0  0  0  0  0  0  0  0  0
   52.4220   -4.0404   -7.8313 C   0  0  0  0  0  0  0  0  0  0  0  0
   51.3249   -3.2366   -7.5617 C   0  0  0  0  0  0  0  0  0  0  0  0
   50.5510   -3.4154   -6.4365 C   0  0  0  0  0  0  0  0  0  0  0  0
   49.4673   -2.5960   -6.2009 C   0  0  0  0  0  0  0  0  0  0  0  0
   48.6866   -2.7669   -5.0753 C   0  0  0  0  0  0  0  0  0  0  0  0
   49.0304   -3.7786   -4.2055 C   0  0  0  0  0  0  0  0  0  0  0  0
   50.1279   -4.6072   -4.4462 C   0  0  0  0  0  0  0  0  0  0  0  0
   50.9074   -4.4331   -5.5750 C   0  0  0  0  0  0  0  0  0  0  0  0
   52.0001   -5.2303   -5.8477 C   0  0  0  0  0  0  0  0  0  0  0  0
 10 11  1  0  0  0
 11 12  1  0  0  0
 12 13  1  0  0  0
 13 16  1  0  0  0
 16 17  2  0  0  0
 17 18  1  0  0  0
 18 19  2  0  0  0
 19 20  1  0  0  0
 20 21  2  0  0  0
 13 14  2  0  0  0
 14 15  1  0  0  0
 15  9  1  0  0  0
  9  8  1  0  0  0
  8  7  1  0  0  0
  7  1  1  0  0  0
  1  2  2  0  0  0
  2  3  1  0  0  0
  3  4  2  0  0  0
  4  5  1  0  0  0
  5 22  1  0  0  0
 22 23  1  0  0  0
 23 24  1  0  0  0
 24 25  1  0  0  0
 25 26  2  0  0  0
 25 27  1  0  0  0
 23 29  1  0  0  0
 29 30  1  0  0  0
 30 31  2  0  0  0
 31 32  1  0  0  0
 32 33  2  0  0  0
 33 34  1  0  0  0
 34 35  2  0  0  0
 35 36  1  0  0  0
 36 37  2  0  0  0
 37 38  1  0  0  0
 38 39  2  0  0  0
  5  6  2  0  0  0
 15 11  2  0  0  0
  6  1  1  0  0  0
 21 16  1  0  0  0
 39 30  1  0  0  0
 38 33  1  0  0  0
 27 28  1  0  0  0
M  END
> <minimizedAffinity>
-10.52798

> <CNNscore>
0.1650855690

> <CNNaffinity>
5.8611807823

> <CNN_VS>
0.9675963521

> <CNNaffinity_variance>
0.3437067568

$$$$
[H]OC(=O)C([H])([H])N(C([H])([H])c1c([H])c([H])c([H])c(OC([H])([H])C([H])([H])c2nc(-c3c([H])c([H])c([H])c([H])c3[H])oc2C([H])([H])[H])c1[H])C([H])([H])c1c([H])c([H])c2c([H])c([H])c([H])c([H])c2c1[H]


 39 43  0  0  0  0  0  0  0  0999 V2000
   55.7193   -5.5468   -1.0863 C   0  0  0  0  0  0  0  0  0  0  0  0
   55.9643   -4.8854    0.0838 C   0  0  0  0  0  0  0  0  0  0  0  0
   55.0960   -5.0240    1.1403 C   0  0  0  0  0  0  0  0  0  0  0  0
   53.9690   -5.8120    1.0791 C   0  0  0  0  0  0  0  0  0  0  0  0
   53.6932   -6.4918   -0.0842 C   0  0  0  0  0  0  0  0  0  0  0  0
   54.5655   -6.3455   -1.1303 C   0  0  0  0  0  0  0  0  0  0  0  0
   56.5212   -5.4644   -2.1764 O   0  0  0  0  0  0  0  0  0  0  0  0
   57.6945   -6.0528   -2.5393 C   0  0  0  0  0  0  0  0  0  0  0  0
   57.6501   -7.1657   -3.5332 C   0  0  0  0  0  0  0  0  0  0  0  0
   54.8333   -8.4971   -3.9090 C   0  0  0  0  0  0  0  0  0  0  0  0
   55.4086   -7.4718   -4.7983 C   0  0  0  0  0  0  0  0  0  0  0  0
   54.8578   -6.9514   -5.8720 O   0  0  0  0  0  0  0  0  0  0  0  0
   55.6611   -6.0682   -6.4102 C   0  0  0  0  0  0  0  0  0  0  0  0
   56.7651   -6.0313   -5.6415 N   0  0  0  0  0  0  0  0  0  0  0  0
   56.6561   -6.8881   -4.6246 C   0  0  0  0  0  0  0  0  0  0  0  0
   55.4255   -5.2702   -7.6057 C   0  0  0  0  0  0  0  0  0  0  0  0
   54.1678   -4.7806   -7.8899 C   0  0  0  0  0  0  0  0  0  0  0  0
   53.9172   -4.0171   -9.0269 C   0  0  0  0  0  0  0  0  0  0  0  0
   54.9440   -3.7366   -9.8988 C   0  0  0  0  0  0  0  0  0  0  0  0
   56.1979   -4.2099   -9.6392 C   0  0  0  0  0  0  0  0  0  0  0  0
   56.4344   -4.9752   -8.4934 C   0  0  0  0  0  0  0  0  0  0  0  0
   52.4911   -7.3297   -0.1592 C   0  0  0  0  0  0  0  0  0  0  0  0
   51.9125   -7.4864   -1.4502 N   0  0  0  0  0  0  0  0  0  0  0  0
   51.6352   -8.8401   -1.7738 C   0  0  0  0  0  0  0  0  0  0  0  0
   50.9117   -9.6060   -0.7504 C   0  0  0  0  0  0  0  0  0  0  0  0
   49.7202   -9.4689   -0.4256 O   0  0  0  0  0  0  0  0  0  0  0  0
   51.6269  -10.6015   -0.0562 O   0  0  0  0  0  0  0  0  0  0  0  0
   51.8648  -10.4548    0.9145 H   0  0  0  0  0  0  0  0  0  0  0  0
   50.8722   -6.5434   -1.7346 C   0  0  0  0  0  0  0  0  0  0  0  0
   50.9391   -5.8913   -3.0389 C   0  0  0  0  0  0  0  0  0  0  0  0
   51.8605   -6.1555   -4.0258 C   0  0  0  0  0  0  0  0  0  0  0  0
   51.8431   -5.4738   -5.2330 C   0  0  0  0  0  0  0  0  0  0  0  0
   50.9065   -4.5015   -5.5060 C   0  0  0  0  0  0  0  0  0  0  0  0
   50.9203   -3.8440   -6.7179 C   0  0  0  0  0  0  0  0  0  0  0  0
   49.9864   -2.8672   -6.9999 C   0  0  0  0  0  0  0  0  0  0  0  0
   49.0496   -2.5788   -6.0316 C   0  0  0  0  0  0  0  0  0  0  0  0
   49.0374   -3.2460   -4.8055 C   0  0  0  0  0  0  0  0  0  0  0  0
   49.9744   -4.2240   -4.5267 C   0  0  0  0  0  0  0  0  0  0  0  0
   49.9959   -4.9051   -3.3269 C   0  0  0  0  0  0  0  0  0  0  0  0
 10 11  1  0  0  0
 11 12  1  0  0  0
 12 13  1  0  0  0
 13 16  1  0  0  0
 16 17  2  0  0  0
 17 18  1  0  0  0
 18 19  2  0  0  0
 19 20  1  0  0  0
 20 21  2  0  0  0
 13 14  2  0  0  0
 14 15  1  0  0  0
 15  9  1  0  0  0
  9  8  1  0  0  0
  8  7  1  0  0  0
  7  1  1  0  0  0
  1  2  2  0  0  0
  2  3  1  0  0  0
  3  4  2  0  0  0
  4  5  1  0  0  0
  5 22  1  0  0  0
 22 23  1  0  0  0
 23 24  1  0  0  0
 24 25  1  0  0  0
 25 26  2  0  0  0
 25 27  1  0  0  0
 23 29  1  0  0  0
 29 30  1  0  0  0
 30 31  2  0  0  0
 31 32  1  0  0  0
 32 33  2  0  0  0
 33 34  1  0  0  0
 34 35  2  0  0  0
 35 36  1  0  0  0
 36 37  2  0  0  0
 37 38  1  0  0  0
 38 39  2  0  0  0
  5  6  2  0  0  0
 15 11  2  0  0  0
  6  1  1  0  0  0
 21 16  1  0  0  0
 39 30  1  0  0  0
 38 33  1  0  0  0
 27 28  1  0  0  0
M  END
> <minimizedAffinity>
-10.49806

> <CNNscore>
0.1444644183

> <CNNaffinity>
6.4838471413

> <CNN_VS>
0.9366852045

> <CNNaffinity_variance>
0.9604718089

$$$$
[H]OC(=O)C([H])([H])N(C([H])([H])c1c([H])c([H])c([H])c(OC([H])([H])C([H])([H])c2nc(-c3c([H])c([H])c([H])c([H])c3[H])oc2C([H])([H])[H])c1[H])C([H])([H])c1c([H])c([H])c2c([H])c([H])c([H])c([H])c2c1[H]


 39 43  0  0  0  0  0  0  0  0999 V2000
   58.1412   -5.1879  -10.0538 C   0  0  0  0  0  0  0  0  0  0  0  0
   57.4489   -4.7513  -11.1477 C   0  0  0  0  0  0  0  0  0  0  0  0
   56.2257   -4.1459  -10.9838 C   0  0  0  0  0  0  0  0  0  0  0  0
   55.6508   -3.9521   -9.7482 C   0  0  0  0  0  0  0  0  0  0  0  0
   56.3215   -4.3796   -8.6262 C   0  0  0  0  0  0  0  0  0  0  0  0
   57.5393   -4.9818   -8.8022 C   0  0  0  0  0  0  0  0  0  0  0  0
   59.3507   -5.7963  -10.1254 O   0  0  0  0  0  0  0  0  0  0  0  0
   59.9634   -6.7795   -9.4097 C   0  0  0  0  0  0  0  0  0  0  0  0
   61.3517   -6.5363   -8.9178 C   0  0  0  0  0  0  0  0  0  0  0  0
   64.4617   -6.1762   -8.7010 C   0  0  0  0  0  0  0  0  0  0  0  0
   63.7321   -6.4904   -9.9428 C   0  0  0  0  0  0  0  0  0  0  0  0
   64.2423   -6.6697  -11.1405 O   0  0  0  0  0  0  0  0  0  0  0  0
   63.2922   -6.9334  -12.0024 C   0  0  0  0  0  0  0  0  0  0  0  0
   62.1342   -6.9194  -11.3170 N   0  0  0  0  0  0  0  0  0  0  0  0
   62.3556   -6.6479  -10.0297 C   0  0  0  0  0  0  0  0  0  0  0  0
   63.4381   -7.1945  -13.4279 C   0  0  0  0  0  0  0  0  0  0  0  0
   62.9658   -6.2955  -14.3613 C   0  0  0  0  0  0  0  0  0  0  0  0
   63.0919   -6.5233  -15.7290 C   0  0  0  0  0  0  0  0  0  0  0  0
   63.7023   -7.6732  -16.1745 C   0  0  0  0  0  0  0  0  0  0  0  0
   64.1782   -8.5783  -15.2700 C   0  0  0  0  0  0  0  0  0  0  0  0
   64.0444   -8.3358  -13.8997 C   0  0  0  0  0  0  0  0  0  0  0  0
   55.7131   -4.1813   -7.3059 C   0  0  0  0  0  0  0  0  0  0  0  0
   55.2375   -5.3514   -6.6497 N   0  0  0  0  0  0  0  0  0  0  0  0
   55.3383   -5.2751   -5.2362 C   0  0  0  0  0  0  0  0  0  0  0  0
   55.9028   -6.4571   -4.5716 C   0  0  0  0  0  0  0  0  0  0  0  0
   55.8310   -6.7331   -3.3621 O   0  0  0  0  0  0  0  0  0  0  0  0
   56.6005   -7.3825   -5.3724 O   0  0  0  0  0  0  0  0  0  0  0  0
   57.6044   -7.4544   -5.2861 H   0  0  0  0  0  0  0  0  0  0  0  0
   53.9945   -5.8392   -7.1687 C   0  0  0  0  0  0  0  0  0  0  0  0
   52.8379   -4.9683   -6.9827 C   0  0  0  0  0  0  0  0  0  0  0  0
   52.4587   -3.9427   -7.8177 C   0  0  0  0  0  0  0  0  0  0  0  0
   51.3422   -3.1660   -7.5485 C   0  0  0  0  0  0  0  0  0  0  0  0
   50.5579   -3.3800   -6.4367 C   0  0  0  0  0  0  0  0  0  0  0  0
   49.4550   -2.5868   -6.2011 C   0  0  0  0  0  0  0  0  0  0  0  0
   48.6638   -2.7930   -5.0888 C   0  0  0  0  0  0  0  0  0  0  0  0
   49.0172   -3.8127   -4.2322 C   0  0  0  0  0  0  0  0  0  0  0  0
   50.1342   -4.6146   -4.4728 C   0  0  0  0  0  0  0  0  0  0  0  0
   50.9242   -4.4052   -5.5883 C   0  0  0  0  0  0  0  0  0  0  0  0
   52.0362   -5.1753   -5.8605 C   0  0  0  0  0  0  0  0  0  0  0  0
 10 11  1  0  0  0
 11 12  1  0  0  0
 12 13  1  0  0  0
 13 16  1  0  0  0
 16 17  2  0  0  0
 17 18  1  0  0  0
 18 19  2  0  0  0
 19 20  1  0  0  0
 20 21  2  0  0  0
 13 14  2  0  0  0
 14 15  1  0  0  0
 15  9  1  0  0  0
  9  8  1  0  0  0
  8  7  1  0  0  0
  7  1  1  0  0  0
  1  2  2  0  0  0
  2  3  1  0  0  0
  3  4  2  0  0  0
  4  5  1  0  0  0
  5 22  1  0  0  0
 22 23  1  0  0  0
 23 24  1  0  0  0
 24 25  1  0  0  0
 25 26  2  0  0  0
 25 27  1  0  0  0
 23 29  1  0  0  0
 29 30  1  0  0  0
 30 31  2  0  0  0
 31 32  1  0  0  0
 32 33  2  0  0  0
 33 34  1  0  0  0
 34 35  2  0  0  0
 35 36  1  0  0  0
 36 37  2  0  0  0
 37 38  1  0  0  0
 38 39  2  0  0  0
  5  6  2  0  0  0
 15 11  2  0  0  0
  6  1  1  0  0  0
 21 16  1  0  0  0
 39 30  1  0  0  0
 38 33  1  0  0  0
 27 28  1  0  0  0
M  END
> <minimizedAffinity>
-9.92117

> <CNNscore>
0.1329768151

> <CNNaffinity>
5.6878700256

> <CNN_VS>
0.7563548684

> <CNNaffinity_variance>
0.2458211482

$$$$
[H]OC(=O)C([H])([H])N(C([H])([H])c1c([H])c([H])c([H])c(OC([H])([H])C([H])([H])c2nc(-c3c([H])c([H])c([H])c([H])c3[H])oc2C([H])([H])[H])c1[H])C([H])([H])c1c([H])c([H])c2c([H])c([H])c([H])c([H])c2c1[H]


 39 43  0  0  0  0  0  0  0  0999 V2000
   58.4721   -5.5099   -9.7775 C   0  0  0  0  0  0  0  0  0  0  0  0
   58.0768   -4.9492  -10.9590 C   0  0  0  0  0  0  0  0  0  0  0  0
   56.9206   -4.2074  -11.0088 C   0  0  0  0  0  0  0  0  0  0  0  0
   56.1243   -3.9952   -9.9062 C   0  0  0  0  0  0  0  0  0  0  0  0
   56.4938   -4.5454   -8.7011 C   0  0  0  0  0  0  0  0  0  0  0  0
   57.6476   -5.2830   -8.6640 C   0  0  0  0  0  0  0  0  0  0  0  0
   59.5953   -6.2568   -9.6405 O   0  0  0  0  0  0  0  0  0  0  0  0
   60.6666   -6.2162   -8.8009 C   0  0  0  0  0  0  0  0  0  0  0  0
   61.8322   -7.1003   -9.0977 C   0  0  0  0  0  0  0  0  0  0  0  0
   62.8552   -9.4694  -10.8837 C   0  0  0  0  0  0  0  0  0  0  0  0
   62.6636   -8.0832  -11.3474 C   0  0  0  0  0  0  0  0  0  0  0  0
   62.8810   -7.6120  -12.5547 O   0  0  0  0  0  0  0  0  0  0  0  0
   62.6007   -6.3335  -12.5990 C   0  0  0  0  0  0  0  0  0  0  0  0
   62.1889   -5.9856  -11.3660 N   0  0  0  0  0  0  0  0  0  0  0  0
   62.2106   -7.0410  -10.5501 C   0  0  0  0  0  0  0  0  0  0  0  0
   62.7060   -5.4437  -13.7473 C   0  0  0  0  0  0  0  0  0  0  0  0
   63.6861   -5.6337  -14.6989 C   0  0  0  0  0  0  0  0  0  0  0  0
   63.8082   -4.7959  -15.8043 C   0  0  0  0  0  0  0  0  0  0  0  0
   62.9332   -3.7459  -15.9628 C   0  0  0  0  0  0  0  0  0  0  0  0
   61.9543   -3.5372  -15.0344 C   0  0  0  0  0  0  0  0  0  0  0  0
   61.8441   -4.3869  -13.9297 C   0  0  0  0  0  0  0  0  0  0  0  0
   55.6477   -4.3281   -7.5223 C   0  0  0  0  0  0  0  0  0  0  0  0
   55.1432   -5.4968   -6.8854 N   0  0  0  0  0  0  0  0  0  0  0  0
   55.2855   -5.4652   -5.4737 C   0  0  0  0  0  0  0  0  0  0  0  0
   55.7057   -6.7249   -4.8459 C   0  0  0  0  0  0  0  0  0  0  0  0
   56.3677   -6.8484   -3.8016 O   0  0  0  0  0  0  0  0  0  0  0  0
   55.3283   -7.9250   -5.4796 O   0  0  0  0  0  0  0  0  0  0  0  0
   56.0316   -8.4836   -5.9418 H   0  0  0  0  0  0  0  0  0  0  0  0
   53.8679   -5.9198   -7.3822 C   0  0  0  0  0  0  0  0  0  0  0  0
   52.7525   -5.0105   -7.1374 C   0  0  0  0  0  0  0  0  0  0  0  0
   52.3971   -3.9403   -7.9257 C   0  0  0  0  0  0  0  0  0  0  0  0
   51.3197   -3.1298   -7.6021 C   0  0  0  0  0  0  0  0  0  0  0  0
   50.5525   -3.3529   -6.4802 C   0  0  0  0  0  0  0  0  0  0  0  0
   49.4886   -2.5252   -6.1900 C   0  0  0  0  0  0  0  0  0  0  0  0
   48.7148   -2.7403   -5.0671 C   0  0  0  0  0  0  0  0  0  0  0  0
   49.0452   -3.8043   -4.2564 C   0  0  0  0  0  0  0  0  0  0  0  0
   50.1226   -4.6411   -4.5524 C   0  0  0  0  0  0  0  0  0  0  0  0
   50.8953   -4.4226   -5.6782 C   0  0  0  0  0  0  0  0  0  0  0  0
   51.9684   -5.2263   -6.0045 C   0  0  0  0  0  0  0  0  0  0  0  0
 10 11  1  0  0  0
 11 12  1  0  0  0
 12 13  1  0  0  0
 13 16  1  0  0  0
 16 17  2  0  0  0
 17 18  1  0  0  0
 18 19  2  0  0  0
 19 20  1  0  0  0
 20 21  2  0  0  0
 13 14  2  0  0  0
 14 15  1  0  0  0
 15  9  1  0  0  0
  9  8  1  0  0  0
  8  7  1  0  0  0
  7  1  1  0  0  0
  1  2  2  0  0  0
  2  3  1  0  0  0
  3  4  2  0  0  0
  4  5  1  0  0  0
  5 22  1  0  0  0
 22 23  1  0  0  0
 23 24  1  0  0  0
 24 25  1  0  0  0
 25 26  2  0  0  0
 25 27  1  0  0  0
 23 29  1  0  0  0
 29 30  1  0  0  0
 30 31  2  0  0  0
 31 32  1  0  0  0
 32 33  2  0  0  0
 33 34  1  0  0  0
 34 35  2  0  0  0
 35 36  1  0  0  0
 36 37  2  0  0  0
 37 38  1  0  0  0
 38 39  2  0  0  0
  5  6  2  0  0  0
 15 11  2  0  0  0
  6  1  1  0  0  0
 21 16  1  0  0  0
 39 30  1  0  0  0
 38 33  1  0  0  0
 27 28  1  0  0  0
M  END
> <minimizedAffinity>
-9.93035

> <CNNscore>
0.1247901991

> <CNNaffinity>
5.6037383080

> <CNN_VS>
0.6992916465

> <CNNaffinity_variance>
0.4414185584

$$$$
[H]OC(=O)C([H])([H])N(C([H])([H])c1c([H])c([H])c([H])c(OC([H])([H])C([H])([H])c2nc(-c3c([H])c([H])c([H])c([H])c3[H])oc2C([H])([H])[H])c1[H])C([H])([H])c1c([H])c([H])c2c([H])c([H])c([H])c([H])c2c1[H]


 39 43  0  0  0  0  0  0  0  0999 V2000
   57.5211   -4.8367  -10.7448 C   0  0  0  0  0  0  0  0  0  0  0  0
   58.4563   -5.5177  -10.0180 C   0  0  0  0  0  0  0  0  0  0  0  0
   58.3752   -5.5330   -8.6459 C   0  0  0  0  0  0  0  0  0  0  0  0
   57.3788   -4.8846   -7.9518 C   0  0  0  0  0  0  0  0  0  0  0  0
   56.4212   -4.1900   -8.6532 C   0  0  0  0  0  0  0  0  0  0  0  0
   56.5127   -4.1816  -10.0201 C   0  0  0  0  0  0  0  0  0  0  0  0
   57.5275   -4.7683  -12.0988 O   0  0  0  0  0  0  0  0  0  0  0  0
   57.6539   -3.7536  -12.9982 C   0  0  0  0  0  0  0  0  0  0  0  0
   56.7888   -3.7743  -14.2145 C   0  0  0  0  0  0  0  0  0  0  0  0
   55.6597   -2.9135  -17.0132 C   0  0  0  0  0  0  0  0  0  0  0  0
   57.0885   -3.0921  -16.6971 C   0  0  0  0  0  0  0  0  0  0  0  0
   58.1086   -2.9263  -17.5087 O   0  0  0  0  0  0  0  0  0  0  0  0
   59.2312   -3.1735  -16.8812 C   0  0  0  0  0  0  0  0  0  0  0  0
   58.9028   -3.5093  -15.6201 N   0  0  0  0  0  0  0  0  0  0  0  0
   57.5792   -3.4734  -15.4558 C   0  0  0  0  0  0  0  0  0  0  0  0
   60.5816   -3.1040  -17.4226 C   0  0  0  0  0  0  0  0  0  0  0  0
   60.7915   -2.9901  -18.7810 C   0  0  0  0  0  0  0  0  0  0  0  0
   62.0724   -2.9235  -19.3227 C   0  0  0  0  0  0  0  0  0  0  0  0
   63.1671   -2.9721  -18.4905 C   0  0  0  0  0  0  0  0  0  0  0  0
   62.9851   -3.0846  -17.1422 C   0  0  0  0  0  0  0  0  0  0  0  0
   61.6929   -3.1502  -16.6128 C   0  0  0  0  0  0  0  0  0  0  0  0
   55.3588   -3.4919   -7.9206 C   0  0  0  0  0  0  0  0  0  0  0  0
   54.1149   -4.1754   -7.8124 N   0  0  0  0  0  0  0  0  0  0  0  0
   53.2203   -3.8710   -8.8712 C   0  0  0  0  0  0  0  0  0  0  0  0
   52.1807   -2.8800   -8.5637 C   0  0  0  0  0  0  0  0  0  0  0  0
   52.1969   -1.6726   -8.8570 O   0  0  0  0  0  0  0  0  0  0  0  0
   51.0421   -3.3270   -7.8650 O   0  0  0  0  0  0  0  0  0  0  0  0
   50.9102   -3.0485   -6.9030 H   0  0  0  0  0  0  0  0  0  0  0  0
   54.2455   -5.5615   -7.4749 C   0  0  0  0  0  0  0  0  0  0  0  0
   53.8756   -5.9251   -6.1104 C   0  0  0  0  0  0  0  0  0  0  0  0
   54.6550   -6.6342   -5.2258 C   0  0  0  0  0  0  0  0  0  0  0  0
   54.2080   -6.9353   -3.9483 C   0  0  0  0  0  0  0  0  0  0  0  0
   52.9664   -6.5418   -3.5004 C   0  0  0  0  0  0  0  0  0  0  0  0
   52.5554   -6.8600   -2.2233 C   0  0  0  0  0  0  0  0  0  0  0  0
   51.3123   -6.4708   -1.7660 C   0  0  0  0  0  0  0  0  0  0  0  0
   50.5071   -5.7592   -2.6283 C   0  0  0  0  0  0  0  0  0  0  0  0
   50.9255   -5.4379   -3.9208 C   0  0  0  0  0  0  0  0  0  0  0  0
   52.1715   -5.8293   -4.3752 C   0  0  0  0  0  0  0  0  0  0  0  0
   52.6208   -5.5321   -5.6455 C   0  0  0  0  0  0  0  0  0  0  0  0
 10 11  1  0  0  0
 11 12  1  0  0  0
 12 13  1  0  0  0
 13 16  1  0  0  0
 16 17  2  0  0  0
 17 18  1  0  0  0
 18 19  2  0  0  0
 19 20  1  0  0  0
 20 21  2  0  0  0
 13 14  2  0  0  0
 14 15  1  0  0  0
 15  9  1  0  0  0
  9  8  1  0  0  0
  8  7  1  0  0  0
  7  1  1  0  0  0
  1  2  2  0  0  0
  2  3  1  0  0  0
  3  4  2  0  0  0
  4  5  1  0  0  0
  5 22  1  0  0  0
 22 23  1  0  0  0
 23 24  1  0  0  0
 24 25  1  0  0  0
 25 26  2  0  0  0
 25 27  1  0  0  0
 23 29  1  0  0  0
 29 30  1  0  0  0
 30 31  2  0  0  0
 31 32  1  0  0  0
 32 33  2  0  0  0
 33 34  1  0  0  0
 34 35  2  0  0  0
 35 36  1  0  0  0
 36 37  2  0  0  0
 37 38  1  0  0  0
 38 39  2  0  0  0
  5  6  2  0  0  0
 15 11  2  0  0  0
  6  1  1  0  0  0
 21 16  1  0  0  0
 39 30  1  0  0  0
 38 33  1  0  0  0
 27 28  1  0  0  0
M  END
> <minimizedAffinity>
-9.05657

> <CNNscore>
0.1227772087

> <CNNaffinity>
5.7030076981

> <CNN_VS>
0.7001993656

> <CNNaffinity_variance>
0.4059706628

$$$$
[H]c1nc([H])c(N([H])C2([H])C([H])([H])N(C(=O)c3c(C([H])([H])[H])noc3C([H])([H])[H])C2([H])[H])c([H])c1N1C(=O)c2c([H])c([H])c(Cl)c([H])c2C([H])([H])C1([H])[H]


 33 37  0  0  0  0  0  0  0  0999 V2000
   54.2602   -4.4615   -8.6681 C   0  0  0  0  0  0  0  0  0  0  0  0
   54.1353   -3.8477   -9.9232 C   0  0  0  0  0  0  0  0  0  0  0  0
   53.0943   -3.0400  -10.1759 N   0  0  0  0  0  0  0  0  0  0  0  0
   52.1429   -2.7932   -9.2421 C   0  0  0  0  0  0  0  0  0  0  0  0
   52.1994   -3.3616   -7.9846 C   0  0  0  0  0  0  0  0  0  0  0  0
   53.2864   -4.2009   -7.7310 C   0  0  0  0  0  0  0  0  0  0  0  0
   51.2158   -3.0994   -6.9973 N   0  0  0  0  0  0  0  0  0  0  0  0
   50.3688   -1.9420   -7.1839 C   0  0  0  0  0  0  0  0  0  0  0  0
   48.9767   -2.1442   -6.6897 C   0  0  0  0  0  0  0  0  0  0  0  0
   48.8754   -3.0919   -5.5626 C   0  0  0  0  0  0  0  0  0  0  0  0
   47.6693   -3.0823   -4.8649 C   0  0  0  0  0  0  0  0  0  0  0  0
   47.4697   -3.9358   -3.7747 C   0  0  0  0  0  0  0  0  0  0  0  0
   45.9557   -3.9368   -2.8883 Cl  0  0  0  0  0  0  0  0  0  0  0  0
   48.4597   -4.8126   -3.3560 C   0  0  0  0  0  0  0  0  0  0  0  0
   49.6482   -4.7936   -4.0759 C   0  0  0  0  0  0  0  0  0  0  0  0
   49.8385   -3.9518   -5.1485 C   0  0  0  0  0  0  0  0  0  0  0  0
   51.1027   -3.9865   -5.8860 C   0  0  0  0  0  0  0  0  0  0  0  0
   52.0173   -4.7649   -5.5356 O   0  0  0  0  0  0  0  0  0  0  0  0
   55.3736   -5.2982   -8.4370 N   0  0  0  0  0  0  0  0  0  0  0  0
   55.2806   -6.3202   -8.6527 H   0  0  0  0  0  0  0  0  0  0  0  0
   56.4134   -5.9709   -4.7010 C   0  0  0  0  0  0  0  0  0  0  0  0
   56.9896   -7.1740   -4.7853 O   0  0  0  0  0  0  0  0  0  0  0  0
   56.6362   -5.2381   -5.8731 N   0  0  0  0  0  0  0  0  0  0  0  0
   57.4227   -5.6621   -7.0848 C   0  0  0  0  0  0  0  0  0  0  0  0
   56.6032   -4.7313   -7.9151 C   0  0  0  0  0  0  0  0  0  0  0  0
   56.3999   -4.0332   -6.5673 C   0  0  0  0  0  0  0  0  0  0  0  0
   53.5234   -6.9312   -4.1433 C   0  0  0  0  0  0  0  0  0  0  0  0
   54.4105   -6.1479   -3.2371 C   0  0  0  0  0  0  0  0  0  0  0  0
   54.0676   -5.7443   -2.0056 N   0  0  0  0  0  0  0  0  0  0  0  0
   55.0326   -5.1063   -1.4905 O   0  0  0  0  0  0  0  0  0  0  0  0
   56.0662   -5.0521   -2.3488 C   0  0  0  0  0  0  0  0  0  0  0  0
   57.3191   -4.3737   -2.0109 C   0  0  0  0  0  0  0  0  0  0  0  0
   55.7251   -5.7027   -3.4861 C   0  0  0  0  0  0  0  0  0  0  0  0
 27 28  1  0  0  0
 28 29  2  0  0  0
 29 30  1  0  0  0
 30 31  1  0  0  0
 31 32  1  0  0  0
 31 33  2  0  0  0
 33 21  1  0  0  0
 21 22  2  0  0  0
 21 23  1  0  0  0
 23 24  1  0  0  0
 24 25  1  0  0  0
 25 19  1  0  0  0
 19  1  1  0  0  0
  1  2  2  0  0  0
  2  3  1  0  0  0
  3  4  2  0  0  0
  4  5  1  0  0  0
  5  7  1  0  0  0
  7  8  1  0  0  0
  8  9  1  0  0  0
  9 10  1  0  0  0
 10 11  2  0  0  0
 11 12  1  0  0  0
 12 13  1  0  0  0
 12 14  2  0  0  0
 14 15  1  0  0  0
 15 16  2  0  0  0
 16 17  1  0  0  0
 17 18  2  0  0  0
  5  6  2  0  0  0
 25 26  1  0  0  0
 33 28  1  0  0  0
 26 23  1  0  0  0
  6  1  1  0  0  0
 17  7  1  0  0  0
 16 10  1  0  0  0
 19 20  1  0  0  0
M  END
> <minimizedAffinity>
-7.82135

> <CNNscore>
0.4611815512

> <CNNaffinity>
7.3932776451

> <CNN_VS>
3.4096431732

> <CNNaffinity_variance>
0.3798089623

$$$$
[H]c1nc([H])c(N([H])C2([H])C([H])([H])N(C(=O)c3c(C([H])([H])[H])noc3C([H])([H])[H])C2([H])[H])c([H])c1N1C(=O)c2c([H])c([H])c(Cl)c([H])c2C([H])([H])C1([H])[H]


 33 37  0  0  0  0  0  0  0  0999 V2000
   55.3744   -4.3462   -7.8959 C   0  0  0  0  0  0  0  0  0  0  0  0
   54.0581   -3.8684   -7.9784 C   0  0  0  0  0  0  0  0  0  0  0  0
   53.5368   -3.5364   -9.1691 N   0  0  0  0  0  0  0  0  0  0  0  0
   54.2526   -3.6494  -10.3150 C   0  0  0  0  0  0  0  0  0  0  0  0
   55.5539   -4.1123  -10.3119 C   0  0  0  0  0  0  0  0  0  0  0  0
   56.0878   -4.4552   -9.0678 C   0  0  0  0  0  0  0  0  0  0  0  0
   56.3060   -4.2458  -11.5066 N   0  0  0  0  0  0  0  0  0  0  0  0
   55.5763   -4.3788  -12.7484 C   0  0  0  0  0  0  0  0  0  0  0  0
   56.2552   -3.7256  -13.9041 C   0  0  0  0  0  0  0  0  0  0  0  0
   57.7263   -3.6887  -13.7889 C   0  0  0  0  0  0  0  0  0  0  0  0
   58.4215   -3.3827  -14.9570 C   0  0  0  0  0  0  0  0  0  0  0  0
   59.8193   -3.3281  -14.9610 C   0  0  0  0  0  0  0  0  0  0  0  0
   60.7080   -2.9416  -16.4234 Cl  0  0  0  0  0  0  0  0  0  0  0  0
   60.5529   -3.5758  -13.8101 C   0  0  0  0  0  0  0  0  0  0  0  0
   59.8252   -3.8775  -12.6653 C   0  0  0  0  0  0  0  0  0  0  0  0
   58.4494   -3.9290  -12.6673 C   0  0  0  0  0  0  0  0  0  0  0  0
   57.7303   -4.2312  -11.4285 C   0  0  0  0  0  0  0  0  0  0  0  0
   58.3602   -4.4599  -10.3721 O   0  0  0  0  0  0  0  0  0  0  0  0
   55.8852   -4.6931   -6.6263 N   0  0  0  0  0  0  0  0  0  0  0  0
   56.4220   -3.9682   -6.0915 H   0  0  0  0  0  0  0  0  0  0  0  0
   52.2219   -5.8798   -5.8117 C   0  0  0  0  0  0  0  0  0  0  0  0
   51.7817   -6.2668   -7.0130 O   0  0  0  0  0  0  0  0  0  0  0  0
   53.5951   -6.1256   -5.6910 N   0  0  0  0  0  0  0  0  0  0  0  0
   54.5075   -6.7557   -6.7094 C   0  0  0  0  0  0  0  0  0  0  0  0
   55.6569   -6.0255   -6.0988 C   0  0  0  0  0  0  0  0  0  0  0  0
   54.7392   -6.0204   -4.8728 C   0  0  0  0  0  0  0  0  0  0  0  0
   51.7317   -6.8974   -2.9291 C   0  0  0  0  0  0  0  0  0  0  0  0
   51.0256   -5.7894   -3.6330 C   0  0  0  0  0  0  0  0  0  0  0  0
   50.0499   -5.0478   -3.0897 N   0  0  0  0  0  0  0  0  0  0  0  0
   49.6567   -4.1900   -3.9341 O   0  0  0  0  0  0  0  0  0  0  0  0
   50.3479   -4.3142   -5.0807 C   0  0  0  0  0  0  0  0  0  0  0  0
   50.1003   -3.4448   -6.2327 C   0  0  0  0  0  0  0  0  0  0  0  0
   51.2397   -5.3240   -4.9468 C   0  0  0  0  0  0  0  0  0  0  0  0
 27 28  1  0  0  0
 28 29  2  0  0  0
 29 30  1  0  0  0
 30 31  1  0  0  0
 31 32  1  0  0  0
 31 33  2  0  0  0
 33 21  1  0  0  0
 21 22  2  0  0  0
 21 23  1  0  0  0
 23 24  1  0  0  0
 24 25  1  0  0  0
 25 19  1  0  0  0
 19  1  1  0  0  0
  1  2  2  0  0  0
  2  3  1  0  0  0
  3  4  2  0  0  0
  4  5  1  0  0  0
  5  7  1  0  0  0
  7  8  1  0  0  0
  8  9  1  0  0  0
  9 10  1  0  0  0
 10 11  2  0  0  0
 11 12  1  0  0  0
 12 13  1  0  0  0
 12 14  2  0  0  0
 14 15  1  0  0  0
 15 16  2  0  0  0
 16 17  1  0  0  0
 17 18  2  0  0  0
  5  6  2  0  0  0
 25 26  1  0  0  0
 33 28  1  0  0  0
 26 23  1  0  0  0
  6  1  1  0  0  0
 17  7  1  0  0  0
 16 10  1  0  0  0
 19 20  1  0  0  0
M  END
> <minimizedAffinity>
-8.45516

> <CNNscore>
0.4464786947

> <CNNaffinity>
7.0842180252

> <CNN_VS>
3.1629524231

> <CNNaffinity_variance>
0.2122983038

$$$$
[H]c1nc([H])c(N([H])C2([H])C([H])([H])N(C(=O)c3c(C([H])([H])[H])noc3C([H])([H])[H])C2([H])[H])c([H])c1N1C(=O)c2c([H])c([H])c(Cl)c([H])c2C([H])([H])C1([H])[H]


 33 37  0  0  0  0  0  0  0  0999 V2000
   57.6397   -5.3275   -9.1826 C   0  0  0  0  0  0  0  0  0  0  0  0
   57.8175   -4.4984  -10.3000 C   0  0  0  0  0  0  0  0  0  0  0  0
   56.7881   -3.7818  -10.7760 N   0  0  0  0  0  0  0  0  0  0  0  0
   55.5606   -3.8334  -10.2028 C   0  0  0  0  0  0  0  0  0  0  0  0
   55.3103   -4.6267   -9.1001 C   0  0  0  0  0  0  0  0  0  0  0  0
   56.3879   -5.3689   -8.6120 C   0  0  0  0  0  0  0  0  0  0  0  0
   54.0331   -4.6775   -8.4861 N   0  0  0  0  0  0  0  0  0  0  0  0
   53.7524   -5.7945   -7.6112 C   0  0  0  0  0  0  0  0  0  0  0  0
   52.8808   -5.4345   -6.4564 C   0  0  0  0  0  0  0  0  0  0  0  0
   51.9475   -4.3256   -6.7361 C   0  0  0  0  0  0  0  0  0  0  0  0
   50.9108   -4.1561   -5.8207 C   0  0  0  0  0  0  0  0  0  0  0  0
   49.9656   -3.1396   -5.9944 C   0  0  0  0  0  0  0  0  0  0  0  0
   48.6564   -2.9125   -4.8490 Cl  0  0  0  0  0  0  0  0  0  0  0  0
   50.0296   -2.2741   -7.0765 C   0  0  0  0  0  0  0  0  0  0  0  0
   51.0770   -2.4740   -7.9678 C   0  0  0  0  0  0  0  0  0  0  0  0
   52.0047   -3.4758   -7.7911 C   0  0  0  0  0  0  0  0  0  0  0  0
   53.1010   -3.6300   -8.7489 C   0  0  0  0  0  0  0  0  0  0  0  0
   53.1893   -2.8671   -9.7364 O   0  0  0  0  0  0  0  0  0  0  0  0
   58.7486   -6.0598   -8.7058 N   0  0  0  0  0  0  0  0  0  0  0  0
   58.5763   -6.8279   -8.0131 H   0  0  0  0  0  0  0  0  0  0  0  0
   61.5475   -8.8269   -8.7259 C   0  0  0  0  0  0  0  0  0  0  0  0
   61.2866   -9.4778   -9.8639 O   0  0  0  0  0  0  0  0  0  0  0  0
   61.2312   -7.4691   -8.8549 N   0  0  0  0  0  0  0  0  0  0  0  0
   60.6972   -6.7630  -10.0726 C   0  0  0  0  0  0  0  0  0  0  0  0
   60.0814   -5.7372   -9.1805 C   0  0  0  0  0  0  0  0  0  0  0  0
   61.1756   -6.2110   -8.2195 C   0  0  0  0  0  0  0  0  0  0  0  0
   64.1976   -8.1713   -7.2655 C   0  0  0  0  0  0  0  0  0  0  0  0
   63.2762   -9.3138   -7.0053 C   0  0  0  0  0  0  0  0  0  0  0  0
   63.4729  -10.2446   -6.0608 N   0  0  0  0  0  0  0  0  0  0  0  0
   62.5177  -11.0756   -6.0870 O   0  0  0  0  0  0  0  0  0  0  0  0
   61.6370  -10.7429   -7.0469 C   0  0  0  0  0  0  0  0  0  0  0  0
   60.4299  -11.5328   -7.2985 C   0  0  0  0  0  0  0  0  0  0  0  0
   62.0710   -9.6216   -7.6694 C   0  0  0  0  0  0  0  0  0  0  0  0
 27 28  1  0  0  0
 28 29  2  0  0  0
 29 30  1  0  0  0
 30 31  1  0  0  0
 31 32  1  0  0  0
 31 33  2  0  0  0
 33 21  1  0  0  0
 21 22  2  0  0  0
 21 23  1  0  0  0
 23 24  1  0  0  0
 24 25  1  0  0  0
 25 19  1  0  0  0
 19  1  1  0  0  0
  1  2  2  0  0  0
  2  3  1  0  0  0
  3  4  2  0  0  0
  4  5  1  0  0  0
  5  7  1  0  0  0
  7  8  1  0  0  0
  8  9  1  0  0  0
  9 10  1  0  0  0
 10 11  2  0  0  0
 11 12  1  0  0  0
 12 13  1  0  0  0
 12 14  2  0  0  0
 14 15  1  0  0  0
 15 16  2  0  0  0
 16 17  1  0  0  0
 17 18  2  0  0  0
  5  6  2  0  0  0
 25 26  1  0  0  0
 33 28  1  0  0  0
 26 23  1  0  0  0
  6  1  1  0  0  0
 17  7  1  0  0  0
 16 10  1  0  0  0
 19 20  1  0  0  0
M  END
> <minimizedAffinity>
-9.39787

> <CNNscore>
0.4152635336

> <CNNaffinity>
6.6126203537

> <CNN_VS>
2.7459800243

> <CNNaffinity_variance>
0.3610359430

$$$$
[H]c1nc([H])c(N([H])C2([H])C([H])([H])N(C(=O)c3c(C([H])([H])[H])noc3C([H])([H])[H])C2([H])[H])c([H])c1N1C(=O)c2c([H])c([H])c(Cl)c([H])c2C([H])([H])C1([H])[H]


 33 37  0  0  0  0  0  0  0  0999 V2000
   57.6029   -5.2774   -9.0733 C   0  0  0  0  0  0  0  0  0  0  0  0
   57.7678   -4.5313  -10.2497 C   0  0  0  0  0  0  0  0  0  0  0  0
   56.7234   -3.8819  -10.7858 N   0  0  0  0  0  0  0  0  0  0  0  0
   55.4929   -3.9237  -10.2182 C   0  0  0  0  0  0  0  0  0  0  0  0
   55.2548   -4.6372   -9.0598 C   0  0  0  0  0  0  0  0  0  0  0  0
   56.3479   -5.3099   -8.5094 C   0  0  0  0  0  0  0  0  0  0  0  0
   53.9742   -4.6764   -8.4520 N   0  0  0  0  0  0  0  0  0  0  0  0
   53.6792   -5.7907   -7.5784 C   0  0  0  0  0  0  0  0  0  0  0  0
   52.8052   -5.4228   -6.4279 C   0  0  0  0  0  0  0  0  0  0  0  0
   51.8833   -4.3056   -6.7122 C   0  0  0  0  0  0  0  0  0  0  0  0
   50.8437   -4.1267   -5.8019 C   0  0  0  0  0  0  0  0  0  0  0  0
   49.9086   -3.1017   -5.9802 C   0  0  0  0  0  0  0  0  0  0  0  0
   48.5959   -2.8627   -4.8411 Cl  0  0  0  0  0  0  0  0  0  0  0  0
   49.9857   -2.2369   -7.0620 C   0  0  0  0  0  0  0  0  0  0  0  0
   51.0356   -2.4463   -7.9481 C   0  0  0  0  0  0  0  0  0  0  0  0
   51.9533   -3.4564   -7.7669 C   0  0  0  0  0  0  0  0  0  0  0  0
   53.0529   -3.6206   -8.7193 C   0  0  0  0  0  0  0  0  0  0  0  0
   53.1528   -2.8586   -9.7065 O   0  0  0  0  0  0  0  0  0  0  0  0
   58.7272   -5.9402   -8.5348 N   0  0  0  0  0  0  0  0  0  0  0  0
   58.6907   -6.2464   -7.5325 H   0  0  0  0  0  0  0  0  0  0  0  0
   61.8784   -7.7617   -7.0370 C   0  0  0  0  0  0  0  0  0  0  0  0
   61.5282   -9.0480   -7.1346 O   0  0  0  0  0  0  0  0  0  0  0  0
   61.3355   -7.0248   -8.0966 N   0  0  0  0  0  0  0  0  0  0  0  0
   60.4932   -7.5375   -9.2342 C   0  0  0  0  0  0  0  0  0  0  0  0
   59.8893   -6.1796   -9.3701 C   0  0  0  0  0  0  0  0  0  0  0  0
   61.1950   -5.7540   -8.6923 C   0  0  0  0  0  0  0  0  0  0  0  0
   60.8547   -7.7942   -4.1154 C   0  0  0  0  0  0  0  0  0  0  0  0
   62.2244   -7.4522   -4.5936 C   0  0  0  0  0  0  0  0  0  0  0  0
   63.2417   -7.1071   -3.7917 N   0  0  0  0  0  0  0  0  0  0  0  0
   64.2703   -6.8807   -4.4947 O   0  0  0  0  0  0  0  0  0  0  0  0
   63.9935   -7.0631   -5.7977 C   0  0  0  0  0  0  0  0  0  0  0  0
   65.0050   -6.8711   -6.8390 C   0  0  0  0  0  0  0  0  0  0  0  0
   62.6963   -7.4301   -5.9222 C   0  0  0  0  0  0  0  0  0  0  0  0
 27 28  1  0  0  0
 28 29  2  0  0  0
 29 30  1  0  0  0
 30 31  1  0  0  0
 31 32  1  0  0  0
 31 33  2  0  0  0
 33 21  1  0  0  0
 21 22  2  0  0  0
 21 23  1  0  0  0
 23 24  1  0  0  0
 24 25  1  0  0  0
 25 19  1  0  0  0
 19  1  1  0  0  0
  1  2  2  0  0  0
  2  3  1  0  0  0
  3  4  2  0  0  0
  4  5  1  0  0  0
  5  7  1  0  0  0
  7  8  1  0  0  0
  8  9  1  0  0  0
  9 10  1  0  0  0
 10 11  2  0  0  0
 11 12  1  0  0  0
 12 13  1  0  0  0
 12 14  2  0  0  0
 14 15  1  0  0  0
 15 16  2  0  0  0
 16 17  1  0  0  0
 17 18  2  0  0  0
  5  6  2  0  0  0
 25 26  1  0  0  0
 33 28  1  0  0  0
 26 23  1  0  0  0
  6  1  1  0  0  0
 17  7  1  0  0  0
 16 10  1  0  0  0
 19 20  1  0  0  0
M  END
> <minimizedAffinity>
-9.88362

> <CNNscore>
0.3793243170

> <CNNaffinity>
6.6367521286

> <CNN_VS>
2.5174815655

> <CNNaffinity_variance>
0.3512067199

$$$$
[H]c1nc([H])c(N([H])C2([H])C([H])([H])N(C(=O)c3c(C([H])([H])[H])noc3C([H])([H])[H])C2([H])[H])c([H])c1N1C(=O)c2c([H])c([H])c(Cl)c([H])c2C([H])([H])C1([H])[H]


 33 37  0  0  0  0  0  0  0  0999 V2000
   57.6093   -5.3059   -9.0903 C   0  0  0  0  0  0  0  0  0  0  0  0
   57.7838   -4.5564  -10.2631 C   0  0  0  0  0  0  0  0  0  0  0  0
   56.7456   -3.8994  -10.8018 N   0  0  0  0  0  0  0  0  0  0  0  0
   55.5121   -3.9365  -10.2404 C   0  0  0  0  0  0  0  0  0  0  0  0
   55.2646   -4.6529   -9.0857 C   0  0  0  0  0  0  0  0  0  0  0  0
   56.3514   -5.3336   -8.5325 C   0  0  0  0  0  0  0  0  0  0  0  0
   53.9809   -4.6874   -8.4843 N   0  0  0  0  0  0  0  0  0  0  0  0
   53.6681   -5.8140   -7.6329 C   0  0  0  0  0  0  0  0  0  0  0  0
   52.7936   -5.4566   -6.4794 C   0  0  0  0  0  0  0  0  0  0  0  0
   51.8870   -4.3228   -6.7467 C   0  0  0  0  0  0  0  0  0  0  0  0
   50.8457   -4.1478   -5.8377 C   0  0  0  0  0  0  0  0  0  0  0  0
   49.9242   -3.1080   -6.0008 C   0  0  0  0  0  0  0  0  0  0  0  0
   48.6095   -2.8737   -4.8631 Cl  0  0  0  0  0  0  0  0  0  0  0  0
   50.0170   -2.2243   -7.0660 C   0  0  0  0  0  0  0  0  0  0  0  0
   51.0681   -2.4303   -7.9513 C   0  0  0  0  0  0  0  0  0  0  0  0
   51.9723   -3.4550   -7.7851 C   0  0  0  0  0  0  0  0  0  0  0  0
   53.0741   -3.6153   -8.7357 C   0  0  0  0  0  0  0  0  0  0  0  0
   53.1879   -2.8363   -9.7080 O   0  0  0  0  0  0  0  0  0  0  0  0
   58.7273   -5.9768   -8.5488 N   0  0  0  0  0  0  0  0  0  0  0  0
   58.6789   -6.2987   -7.5520 H   0  0  0  0  0  0  0  0  0  0  0  0
   61.9026   -7.7212   -7.0106 C   0  0  0  0  0  0  0  0  0  0  0  0
   61.5777   -9.0149   -7.0965 O   0  0  0  0  0  0  0  0  0  0  0  0
   61.3528   -7.0063   -8.0817 N   0  0  0  0  0  0  0  0  0  0  0  0
   60.5282   -7.5473   -9.2191 C   0  0  0  0  0  0  0  0  0  0  0  0
   59.8994   -6.2027   -9.3738 C   0  0  0  0  0  0  0  0  0  0  0  0
   61.1921   -5.7449   -8.6921 C   0  0  0  0  0  0  0  0  0  0  0  0
   64.8418   -6.7839   -7.2703 C   0  0  0  0  0  0  0  0  0  0  0  0
   64.0429   -6.9309   -6.0205 C   0  0  0  0  0  0  0  0  0  0  0  0
   64.5035   -6.6585   -4.7915 N   0  0  0  0  0  0  0  0  0  0  0  0
   63.5893   -6.8793   -3.9435 O   0  0  0  0  0  0  0  0  0  0  0  0
   62.4749   -7.3086   -4.5611 C   0  0  0  0  0  0  0  0  0  0  0  0
   61.2562   -7.6386   -3.8195 C   0  0  0  0  0  0  0  0  0  0  0  0
   62.7063   -7.3620   -5.8941 C   0  0  0  0  0  0  0  0  0  0  0  0
 27 28  1  0  0  0
 28 29  2  0  0  0
 29 30  1  0  0  0
 30 31  1  0  0  0
 31 32  1  0  0  0
 31 33  2  0  0  0
 33 21  1  0  0  0
 21 22  2  0  0  0
 21 23  1  0  0  0
 23 24  1  0  0  0
 24 25  1  0  0  0
 25 19  1  0  0  0
 19  1  1  0  0  0
  1  2  2  0  0  0
  2  3  1  0  0  0
  3  4  2  0  0  0
  4  5  1  0  0  0
  5  7  1  0  0  0
  7  8  1  0  0  0
  8  9  1  0  0  0
  9 10  1  0  0  0
 10 11  2  0  0  0
 11 12  1  0  0  0
 12 13  1  0  0  0
 12 14  2  0  0  0
 14 15  1  0  0  0
 15 16  2  0  0  0
 16 17  1  0  0  0
 17 18  2  0  0  0
  5  6  2  0  0  0
 25 26  1  0  0  0
 33 28  1  0  0  0
 26 23  1  0  0  0
  6  1  1  0  0  0
 17  7  1  0  0  0
 16 10  1  0  0  0
 19 20  1  0  0  0
M  END
> <minimizedAffinity>
-9.82203

> <CNNscore>
0.3737448454

> <CNNaffinity>
6.6137380600

> <CNN_VS>
2.4718503952

> <CNNaffinity_variance>
0.3691404462

$$$$
[H]c1nc([H])c(N([H])C2([H])C([H])([H])N(C(=O)c3c(C([H])([H])[H])noc3C([H])([H])[H])C2([H])[H])c([H])c1N1C(=O)c2c([H])c([H])c(Cl)c([H])c2C([H])([H])C1([H])[H]


 33 37  0  0  0  0  0  0  0  0999 V2000
   55.0710   -5.8825   -3.5576 C   0  0  0  0  0  0  0  0  0  0  0  0
   55.8197   -6.9922   -3.1384 C   0  0  0  0  0  0  0  0  0  0  0  0
   56.7895   -7.4844   -3.9239 N   0  0  0  0  0  0  0  0  0  0  0  0
   57.0747   -6.9351   -5.1302 C   0  0  0  0  0  0  0  0  0  0  0  0
   56.3802   -5.8414   -5.6090 C   0  0  0  0  0  0  0  0  0  0  0  0
   55.3725   -5.3364   -4.7844 C   0  0  0  0  0  0  0  0  0  0  0  0
   56.6797   -5.2524   -6.8637 N   0  0  0  0  0  0  0  0  0  0  0  0
   58.0618   -5.2457   -7.2897 C   0  0  0  0  0  0  0  0  0  0  0  0
   58.2255   -5.4047   -8.7631 C   0  0  0  0  0  0  0  0  0  0  0  0
   57.0968   -4.8703   -9.5500 C   0  0  0  0  0  0  0  0  0  0  0  0
   57.3285   -4.7063  -10.9141 C   0  0  0  0  0  0  0  0  0  0  0  0
   56.3285   -4.2001  -11.7512 C   0  0  0  0  0  0  0  0  0  0  0  0
   56.6048   -3.9905  -13.4709 Cl  0  0  0  0  0  0  0  0  0  0  0  0
   55.0829   -3.8472  -11.2531 C   0  0  0  0  0  0  0  0  0  0  0  0
   54.8890   -4.0249   -9.8885 C   0  0  0  0  0  0  0  0  0  0  0  0
   55.8768   -4.5242   -9.0698 C   0  0  0  0  0  0  0  0  0  0  0  0
   55.6136   -4.7112   -7.6419 C   0  0  0  0  0  0  0  0  0  0  0  0
   54.5014   -4.4033   -7.1589 O   0  0  0  0  0  0  0  0  0  0  0  0
   54.0644   -5.3881   -2.6999 N   0  0  0  0  0  0  0  0  0  0  0  0
   54.2189   -4.4612   -2.2347 H   0  0  0  0  0  0  0  0  0  0  0  0
   51.0824   -5.1158   -5.2543 C   0  0  0  0  0  0  0  0  0  0  0  0
   51.4662   -5.9564   -6.2201 O   0  0  0  0  0  0  0  0  0  0  0  0
   51.5281   -5.5676   -4.0063 N   0  0  0  0  0  0  0  0  0  0  0  0
   52.3071   -6.8211   -3.7088 C   0  0  0  0  0  0  0  0  0  0  0  0
   52.8564   -6.1634   -2.4870 C   0  0  0  0  0  0  0  0  0  0  0  0
   51.5869   -5.3172   -2.6194 C   0  0  0  0  0  0  0  0  0  0  0  0
   51.8165   -3.4461   -7.7560 C   0  0  0  0  0  0  0  0  0  0  0  0
   50.6695   -3.2345   -6.8279 C   0  0  0  0  0  0  0  0  0  0  0  0
   49.7590   -2.2595   -6.9600 N   0  0  0  0  0  0  0  0  0  0  0  0
   48.9139   -2.3461   -6.0209 O   0  0  0  0  0  0  0  0  0  0  0  0
   49.2156   -3.3804   -5.2166 C   0  0  0  0  0  0  0  0  0  0  0  0
   48.4015   -3.7152   -4.0465 C   0  0  0  0  0  0  0  0  0  0  0  0
   50.3320   -3.9871   -5.6842 C   0  0  0  0  0  0  0  0  0  0  0  0
 27 28  1  0  0  0
 28 29  2  0  0  0
 29 30  1  0  0  0
 30 31  1  0  0  0
 31 32  1  0  0  0
 31 33  2  0  0  0
 33 21  1  0  0  0
 21 22  2  0  0  0
 21 23  1  0  0  0
 23 24  1  0  0  0
 24 25  1  0  0  0
 25 19  1  0  0  0
 19  1  1  0  0  0
  1  2  2  0  0  0
  2  3  1  0  0  0
  3  4  2  0  0  0
  4  5  1  0  0  0
  5  7  1  0  0  0
  7  8  1  0  0  0
  8  9  1  0  0  0
  9 10  1  0  0  0
 10 11  2  0  0  0
 11 12  1  0  0  0
 12 13  1  0  0  0
 12 14  2  0  0  0
 14 15  1  0  0  0
 15 16  2  0  0  0
 16 17  1  0  0  0
 17 18  2  0  0  0
  5  6  2  0  0  0
 25 26  1  0  0  0
 33 28  1  0  0  0
 26 23  1  0  0  0
  6  1  1  0  0  0
 17  7  1  0  0  0
 16 10  1  0  0  0
 19 20  1  0  0  0
M  END
> <minimizedAffinity>
-9.23590

> <CNNscore>
0.3150380254

> <CNNaffinity>
7.2536725998

> <CNN_VS>
2.2851827145

> <CNNaffinity_variance>
0.0974726453

$$$$
[H]c1nc([H])c(N([H])C2([H])C([H])([H])N(C(=O)c3c(C([H])([H])[H])noc3C([H])([H])[H])C2([H])[H])c([H])c1N1C(=O)c2c([H])c([H])c(Cl)c([H])c2C([H])([H])C1([H])[H]


 33 37  0  0  0  0  0  0  0  0999 V2000
   57.5470   -4.9555   -9.1750 C   0  0  0  0  0  0  0  0  0  0  0  0
   57.5022   -4.5784  -10.5254 C   0  0  0  0  0  0  0  0  0  0  0  0
   58.5101   -4.9049  -11.3483 N   0  0  0  0  0  0  0  0  0  0  0  0
   59.5891   -5.5992  -10.9103 C   0  0  0  0  0  0  0  0  0  0  0  0
   59.7028   -6.0045   -9.5948 C   0  0  0  0  0  0  0  0  0  0  0  0
   58.6487   -5.6599   -8.7458 C   0  0  0  0  0  0  0  0  0  0  0  0
   60.8214   -6.7419   -9.1304 N   0  0  0  0  0  0  0  0  0  0  0  0
   61.8062   -6.0400   -8.3370 C   0  0  0  0  0  0  0  0  0  0  0  0
   62.4194   -6.8867   -7.2740 C   0  0  0  0  0  0  0  0  0  0  0  0
   62.4754   -8.3223   -7.6129 C   0  0  0  0  0  0  0  0  0  0  0  0
   63.3059   -9.1051   -6.8137 C   0  0  0  0  0  0  0  0  0  0  0  0
   63.4382  -10.4771   -7.0523 C   0  0  0  0  0  0  0  0  0  0  0  0
   64.4781  -11.4759   -6.0528 Cl  0  0  0  0  0  0  0  0  0  0  0  0
   62.7517  -11.0977   -8.0855 C   0  0  0  0  0  0  0  0  0  0  0  0
   61.9333  -10.2850   -8.8608 C   0  0  0  0  0  0  0  0  0  0  0  0
   61.8067   -8.9353   -8.6207 C   0  0  0  0  0  0  0  0  0  0  0  0
   60.9147   -8.1280   -9.4547 C   0  0  0  0  0  0  0  0  0  0  0  0
   60.2804   -8.6550  -10.3954 O   0  0  0  0  0  0  0  0  0  0  0  0
   56.4637   -4.6010   -8.3419 N   0  0  0  0  0  0  0  0  0  0  0  0
   55.7971   -3.8652   -8.6795 H   0  0  0  0  0  0  0  0  0  0  0  0
   52.8526   -5.3180   -6.9500 C   0  0  0  0  0  0  0  0  0  0  0  0
   52.5314   -6.4514   -7.5817 O   0  0  0  0  0  0  0  0  0  0  0  0
   54.2282   -5.2741   -6.6924 N   0  0  0  0  0  0  0  0  0  0  0  0
   55.2574   -6.3221   -7.0220 C   0  0  0  0  0  0  0  0  0  0  0  0
   56.3004   -5.2553   -7.0570 C   0  0  0  0  0  0  0  0  0  0  0  0
   55.2986   -4.5300   -6.1539 C   0  0  0  0  0  0  0  0  0  0  0  0
   52.2993   -2.7680   -8.6162 C   0  0  0  0  0  0  0  0  0  0  0  0
   51.5218   -3.2775   -7.4510 C   0  0  0  0  0  0  0  0  0  0  0  0
   50.4293   -2.6824   -6.9516 N   0  0  0  0  0  0  0  0  0  0  0  0
   49.9973   -3.3562   -5.9704 O   0  0  0  0  0  0  0  0  0  0  0  0
   50.7765   -4.4326   -5.7653 C   0  0  0  0  0  0  0  0  0  0  0  0
   50.5066   -5.3914   -4.6920 C   0  0  0  0  0  0  0  0  0  0  0  0
   51.7707   -4.4345   -6.6844 C   0  0  0  0  0  0  0  0  0  0  0  0
 27 28  1  0  0  0
 28 29  2  0  0  0
 29 30  1  0  0  0
 30 31  1  0  0  0
 31 32  1  0  0  0
 31 33  2  0  0  0
 33 21  1  0  0  0
 21 22  2  0  0  0
 21 23  1  0  0  0
 23 24  1  0  0  0
 24 25  1  0  0  0
 25 19  1  0  0  0
 19  1  1  0  0  0
  1  2  2  0  0  0
  2  3  1  0  0  0
  3  4  2  0  0  0
  4  5  1  0  0  0
  5  7  1  0  0  0
  7  8  1  0  0  0
  8  9  1  0  0  0
  9 10  1  0  0  0
 10 11  2  0  0  0
 11 12  1  0  0  0
 12 13  1  0  0  0
 12 14  2  0  0  0
 14 15  1  0  0  0
 15 16  2  0  0  0
 16 17  1  0  0  0
 17 18  2  0  0  0
  5  6  2  0  0  0
 25 26  1  0  0  0
 33 28  1  0  0  0
 26 23  1  0  0  0
  6  1  1  0  0  0
 17  7  1  0  0  0
 16 10  1  0  0  0
 19 20  1  0  0  0
M  END
> <minimizedAffinity>
-7.97234

> <CNNscore>
0.3048357368

> <CNNaffinity>
6.3504920006

> <CNN_VS>
1.9358569384

> <CNNaffinity_variance>
0.1032200083

$$$$
[H]c1nc([H])c(N([H])C2([H])C([H])([H])N(C(=O)c3c(C([H])([H])[H])noc3C([H])([H])[H])C2([H])[H])c([H])c1N1C(=O)c2c([H])c([H])c(Cl)c([H])c2C([H])([H])C1([H])[H]


 33 37  0  0  0  0  0  0  0  0999 V2000
   57.1563   -4.8356   -8.3450 C   0  0  0  0  0  0  0  0  0  0  0  0
   56.6497   -4.4780   -9.6033 C   0  0  0  0  0  0  0  0  0  0  0  0
   57.3760   -4.7018  -10.7087 N   0  0  0  0  0  0  0  0  0  0  0  0
   58.6045   -5.2722  -10.6489 C   0  0  0  0  0  0  0  0  0  0  0  0
   59.1681   -5.6507   -9.4460 C   0  0  0  0  0  0  0  0  0  0  0  0
   58.4046   -5.4135   -8.3009 C   0  0  0  0  0  0  0  0  0  0  0  0
   60.4468   -6.2594   -9.3746 N   0  0  0  0  0  0  0  0  0  0  0  0
   60.8640   -6.7981   -8.0988 C   0  0  0  0  0  0  0  0  0  0  0  0
   61.6955   -8.0295   -8.2220 C   0  0  0  0  0  0  0  0  0  0  0  0
   62.4892   -8.0916   -9.4651 C   0  0  0  0  0  0  0  0  0  0  0  0
   63.5053   -9.0445   -9.4922 C   0  0  0  0  0  0  0  0  0  0  0  0
   64.3224   -9.1833  -10.6191 C   0  0  0  0  0  0  0  0  0  0  0  0
   65.6041  -10.3802  -10.6689 Cl  0  0  0  0  0  0  0  0  0  0  0  0
   64.1486   -8.3816  -11.7377 C   0  0  0  0  0  0  0  0  0  0  0  0
   63.1256   -7.4432  -11.6736 C   0  0  0  0  0  0  0  0  0  0  0  0
   62.3241   -7.3118  -10.5620 C   0  0  0  0  0  0  0  0  0  0  0  0
   61.2466   -6.3208  -10.5542 C   0  0  0  0  0  0  0  0  0  0  0  0
   61.0616   -5.5810  -11.5459 O   0  0  0  0  0  0  0  0  0  0  0  0
   56.3591   -4.5918   -7.2056 N   0  0  0  0  0  0  0  0  0  0  0  0
   55.9794   -3.6249   -7.0623 H   0  0  0  0  0  0  0  0  0  0  0  0
   52.6419   -5.6425   -6.4509 C   0  0  0  0  0  0  0  0  0  0  0  0
   52.3659   -6.4472   -7.4819 O   0  0  0  0  0  0  0  0  0  0  0  0
   53.9921   -5.7478   -6.0955 N   0  0  0  0  0  0  0  0  0  0  0  0
   55.0380   -6.6350   -6.7165 C   0  0  0  0  0  0  0  0  0  0  0  0
   56.0873   -5.6705   -6.2738 C   0  0  0  0  0  0  0  0  0  0  0  0
   55.0199   -5.2970   -5.2411 C   0  0  0  0  0  0  0  0  0  0  0  0
   51.2157   -6.2729   -3.7762 C   0  0  0  0  0  0  0  0  0  0  0  0
   50.9064   -5.1722   -4.7326 C   0  0  0  0  0  0  0  0  0  0  0  0
   49.9362   -4.2646   -4.5537 N   0  0  0  0  0  0  0  0  0  0  0  0
   49.9266   -3.4635   -5.5344 O   0  0  0  0  0  0  0  0  0  0  0  0
   50.8872   -3.7939   -6.4152 C   0  0  0  0  0  0  0  0  0  0  0  0
   51.1042   -3.0325   -7.6470 C   0  0  0  0  0  0  0  0  0  0  0  0
   51.5478   -4.8823   -5.9544 C   0  0  0  0  0  0  0  0  0  0  0  0
 27 28  1  0  0  0
 28 29  2  0  0  0
 29 30  1  0  0  0
 30 31  1  0  0  0
 31 32  1  0  0  0
 31 33  2  0  0  0
 33 21  1  0  0  0
 21 22  2  0  0  0
 21 23  1  0  0  0
 23 24  1  0  0  0
 24 25  1  0  0  0
 25 19  1  0  0  0
 19  1  1  0  0  0
  1  2  2  0  0  0
  2  3  1  0  0  0
  3  4  2  0  0  0
  4  5  1  0  0  0
  5  7  1  0  0  0
  7  8  1  0  0  0
  8  9  1  0  0  0
  9 10  1  0  0  0
 10 11  2  0  0  0
 11 12  1  0  0  0
 12 13  1  0  0  0
 12 14  2  0  0  0
 14 15  1  0  0  0
 15 16  2  0  0  0
 16 17  1  0  0  0
 17 18  2  0  0  0
  5  6  2  0  0  0
 25 26  1  0  0  0
 33 28  1  0  0  0
 26 23  1  0  0  0
  6  1  1  0  0  0
 17  7  1  0  0  0
 16 10  1  0  0  0
 19 20  1  0  0  0
M  END
> <minimizedAffinity>
-7.80910

> <CNNscore>
0.2937926948

> <CNNaffinity>
6.1880607605

> <CNN_VS>
1.8180069923

> <CNNaffinity_variance>
0.0763636082

$$$$
[H]c1nc([H])c(N([H])C2([H])C([H])([H])N(C(=O)c3c(C([H])([H])[H])noc3C([H])([H])[H])C2([H])[H])c([H])c1N1C(=O)c2c([H])c([H])c(Cl)c([H])c2C([H])([H])C1([H])[H]


 33 37  0  0  0  0  0  0  0  0999 V2000
   55.4256   -4.5398   -9.0663 C   0  0  0  0  0  0  0  0  0  0  0  0
   55.0341   -4.1483  -10.3552 C   0  0  0  0  0  0  0  0  0  0  0  0
   55.9261   -4.1466  -11.3572 N   0  0  0  0  0  0  0  0  0  0  0  0
   57.2155   -4.5173  -11.1619 C   0  0  0  0  0  0  0  0  0  0  0  0
   57.6734   -4.9150   -9.9210 C   0  0  0  0  0  0  0  0  0  0  0  0
   56.7376   -4.9133   -8.8842 C   0  0  0  0  0  0  0  0  0  0  0  0
   59.0169   -5.3165   -9.7097 N   0  0  0  0  0  0  0  0  0  0  0  0
   59.4195   -5.6296   -8.3563 C   0  0  0  0  0  0  0  0  0  0  0  0
   60.4208   -6.7316   -8.2788 C   0  0  0  0  0  0  0  0  0  0  0  0
   61.2961   -6.8269   -9.4636 C   0  0  0  0  0  0  0  0  0  0  0  0
   62.4346   -7.6168   -9.3182 C   0  0  0  0  0  0  0  0  0  0  0  0
   63.3360   -7.7697  -10.3768 C   0  0  0  0  0  0  0  0  0  0  0  0
   64.7724   -8.7630  -10.2093 Cl  0  0  0  0  0  0  0  0  0  0  0  0
   63.1268   -7.1437  -11.5968 C   0  0  0  0  0  0  0  0  0  0  0  0
   61.9811   -6.3646  -11.7042 C   0  0  0  0  0  0  0  0  0  0  0  0
   61.0971   -6.2184  -10.6589 C   0  0  0  0  0  0  0  0  0  0  0  0
   59.8940   -5.4025  -10.8315 C   0  0  0  0  0  0  0  0  0  0  0  0
   59.6739   -4.8234  -11.9184 O   0  0  0  0  0  0  0  0  0  0  0  0
   54.4566   -4.5364   -8.0396 N   0  0  0  0  0  0  0  0  0  0  0  0
   53.7879   -3.7302   -7.9899 H   0  0  0  0  0  0  0  0  0  0  0  0
   51.1161   -5.3216   -6.1119 C   0  0  0  0  0  0  0  0  0  0  0  0
   50.4429   -6.0502   -7.0079 O   0  0  0  0  0  0  0  0  0  0  0  0
   52.4922   -5.5520   -6.2280 N   0  0  0  0  0  0  0  0  0  0  0  0
   53.1888   -6.4887   -7.1788 C   0  0  0  0  0  0  0  0  0  0  0  0
   54.4092   -5.6342   -7.0918 C   0  0  0  0  0  0  0  0  0  0  0  0
   53.7810   -5.2272   -5.7557 C   0  0  0  0  0  0  0  0  0  0  0  0
   49.6792   -2.7615   -7.0951 C   0  0  0  0  0  0  0  0  0  0  0  0
   49.6656   -3.3393   -5.7212 C   0  0  0  0  0  0  0  0  0  0  0  0
   48.9961   -2.8134   -4.6856 N   0  0  0  0  0  0  0  0  0  0  0  0
   49.1795   -3.5331   -3.6599 O   0  0  0  0  0  0  0  0  0  0  0  0
   49.9778   -4.5733   -3.9573 C   0  0  0  0  0  0  0  0  0  0  0  0
   50.3556   -5.5715   -2.9548 C   0  0  0  0  0  0  0  0  0  0  0  0
   50.3214   -4.5013   -5.2650 C   0  0  0  0  0  0  0  0  0  0  0  0
 27 28  1  0  0  0
 28 29  2  0  0  0
 29 30  1  0  0  0
 30 31  1  0  0  0
 31 32  1  0  0  0
 31 33  2  0  0  0
 33 21  1  0  0  0
 21 22  2  0  0  0
 21 23  1  0  0  0
 23 24  1  0  0  0
 24 25  1  0  0  0
 25 19  1  0  0  0
 19  1  1  0  0  0
  1  2  2  0  0  0
  2  3  1  0  0  0
  3  4  2  0  0  0
  4  5  1  0  0  0
  5  7  1  0  0  0
  7  8  1  0  0  0
  8  9  1  0  0  0
  9 10  1  0  0  0
 10 11  2  0  0  0
 11 12  1  0  0  0
 12 13  1  0  0  0
 12 14  2  0  0  0
 14 15  1  0  0  0
 15 16  2  0  0  0
 16 17  1  0  0  0
 17 18  2  0  0  0
  5  6  2  0  0  0
 25 26  1  0  0  0
 33 28  1  0  0  0
 26 23  1  0  0  0
  6  1  1  0  0  0
 17  7  1  0  0  0
 16 10  1  0  0  0
 19 20  1  0  0  0
M  END
> <minimizedAffinity>
-7.90537

> <CNNscore>
0.2881571651

> <CNNaffinity>
6.5610990524

> <CNN_VS>
1.8906277418

> <CNNaffinity_variance>
0.1101425663

$$$$
[H]c1c([H])c([H])c2c(nc(SC([H])([H])C(=O)N3C(=O)C([H])([H])C([H])([H])C3([H])[H])n2C([H])([H])[H])c1[H]


 20 22  0  0  0  0  0  0  0  0999 V2000
   52.7275   -5.7879   -6.6526 C   0  0  0  0  0  0  0  0  0  0  0  0
   51.9087   -4.5818   -6.8020 N   0  0  0  0  0  0  0  0  0  0  0  0
   51.9416   -3.6286   -7.7227 C   0  0  0  0  0  0  0  0  0  0  0  0
   50.9353   -2.7510   -7.4382 N   0  0  0  0  0  0  0  0  0  0  0  0
   50.2683   -3.1473   -6.3390 C   0  0  0  0  0  0  0  0  0  0  0  0
   49.1915   -2.6129   -5.6549 C   0  0  0  0  0  0  0  0  0  0  0  0
   48.7166   -3.2518   -4.5381 C   0  0  0  0  0  0  0  0  0  0  0  0
   49.3359   -4.4255   -4.1238 C   0  0  0  0  0  0  0  0  0  0  0  0
   50.4012   -4.9517   -4.8030 C   0  0  0  0  0  0  0  0  0  0  0  0
   50.8897   -4.3089   -5.9386 C   0  0  0  0  0  0  0  0  0  0  0  0
   53.0468   -3.4064   -9.0564 S   0  0  0  0  0  0  0  0  0  0  0  0
   54.6754   -2.8338   -8.7021 C   0  0  0  0  0  0  0  0  0  0  0  0
   55.6200   -3.7032   -8.0325 C   0  0  0  0  0  0  0  0  0  0  0  0
   55.6099   -3.9823   -6.8343 O   0  0  0  0  0  0  0  0  0  0  0  0
   56.6580   -4.2855   -8.8529 N   0  0  0  0  0  0  0  0  0  0  0  0
   56.8209   -4.0754  -10.2640 C   0  0  0  0  0  0  0  0  0  0  0  0
   57.7451   -5.2095  -10.7223 C   0  0  0  0  0  0  0  0  0  0  0  0
   58.6357   -5.3930   -9.5230 C   0  0  0  0  0  0  0  0  0  0  0  0
   57.6922   -5.1671   -8.4013 C   0  0  0  0  0  0  0  0  0  0  0  0
   57.7402   -5.6400   -7.2373 O   0  0  0  0  0  0  0  0  0  0  0  0
  1  2  1  0  0  0
  2  3  1  0  0  0
  3 11  1  0  0  0
 11 12  1  0  0  0
 12 13  1  0  0  0
 13 14  2  0  0  0
 13 15  1  0  0  0
 15 16  1  0  0  0
 16 17  1  0  0  0
 17 18  1  0  0  0
 18 19  1  0  0  0
 19 20  2  0  0  0
  3  4  2  0  0  0
  4  5  1  0  0  0
  5  6  2  0  0  0
  6  7  1  0  0  0
  7  8  2  0  0  0
  8  9  1  0  0  0
  9 10  2  0  0  0
 10  2  1  0  0  0
 19 15  1  0  0  0
 10  5  1  0  0  0
M  END
> <minimizedAffinity>
-8.70442

> <CNNscore>
0.5863061547

> <CNNaffinity>
5.6976976395

> <CNN_VS>
3.3405952454

> <CNNaffinity_variance>
0.1216337234

$$$$
[H]c1c([H])c([H])c2c(nc(SC([H])([H])C(=O)N3C(=O)C([H])([H])C([H])([H])C3([H])[H])n2C([H])([H])[H])c1[H]


 20 22  0  0  0  0  0  0  0  0999 V2000
   52.9325   -5.7960   -6.6849 C   0  0  0  0  0  0  0  0  0  0  0  0
   52.1043   -4.6071   -6.9040 N   0  0  0  0  0  0  0  0  0  0  0  0
   52.1419   -3.6987   -7.8688 C   0  0  0  0  0  0  0  0  0  0  0  0
   51.1230   -2.8191   -7.6416 N   0  0  0  0  0  0  0  0  0  0  0  0
   50.4431   -3.1693   -6.5345 C   0  0  0  0  0  0  0  0  0  0  0  0
   49.3509   -2.6141   -5.8928 C   0  0  0  0  0  0  0  0  0  0  0  0
   48.8653   -3.2038   -4.7538 C   0  0  0  0  0  0  0  0  0  0  0  0
   49.4896   -4.3497   -4.2746 C   0  0  0  0  0  0  0  0  0  0  0  0
   50.5703   -4.8967   -4.9119 C   0  0  0  0  0  0  0  0  0  0  0  0
   51.0697   -4.3039   -6.0698 C   0  0  0  0  0  0  0  0  0  0  0  0
   53.2652   -3.5290   -9.1951 S   0  0  0  0  0  0  0  0  0  0  0  0
   54.9772   -3.7996   -8.8767 C   0  0  0  0  0  0  0  0  0  0  0  0
   55.8707   -4.1457   -9.9623 C   0  0  0  0  0  0  0  0  0  0  0  0
   55.6644   -3.9277  -11.1554 O   0  0  0  0  0  0  0  0  0  0  0  0
   57.1059   -4.8033   -9.5994 N   0  0  0  0  0  0  0  0  0  0  0  0
   57.5133   -5.1318   -8.2623 C   0  0  0  0  0  0  0  0  0  0  0  0
   59.0199   -5.3951   -8.3680 C   0  0  0  0  0  0  0  0  0  0  0  0
   59.1368   -6.0043   -9.7393 C   0  0  0  0  0  0  0  0  0  0  0  0
   58.1276   -5.2337  -10.5057 C   0  0  0  0  0  0  0  0  0  0  0  0
   58.1184   -4.9717  -11.7354 O   0  0  0  0  0  0  0  0  0  0  0  0
  1  2  1  0  0  0
  2  3  1  0  0  0
  3 11  1  0  0  0
 11 12  1  0  0  0
 12 13  1  0  0  0
 13 14  2  0  0  0
 13 15  1  0  0  0
 15 16  1  0  0  0
 16 17  1  0  0  0
 17 18  1  0  0  0
 18 19  1  0  0  0
 19 20  2  0  0  0
  3  4  2  0  0  0
  4  5  1  0  0  0
  5  6  2  0  0  0
  6  7  1  0  0  0
  7  8  2  0  0  0
  8  9  1  0  0  0
  9 10  2  0  0  0
 10  2  1  0  0  0
 19 15  1  0  0  0
 10  5  1  0  0  0
M  END
> <minimizedAffinity>
-8.93559

> <CNNscore>
0.5592473745

> <CNNaffinity>
5.7483644485

> <CNN_VS>
3.2147576809

> <CNNaffinity_variance>
0.0756505132

$$$$
[H]c1c([H])c([H])c2c(nc(SC([H])([H])C(=O)N3C(=O)C([H])([H])C([H])([H])C3([H])[H])n2C([H])([H])[H])c1[H]


 20 22  0  0  0  0  0  0  0  0999 V2000
   53.5502   -6.1967   -6.3297 C   0  0  0  0  0  0  0  0  0  0  0  0
   53.1875   -4.9602   -7.0275 N   0  0  0  0  0  0  0  0  0  0  0  0
   53.8508   -4.2594   -7.9365 C   0  0  0  0  0  0  0  0  0  0  0  0
   53.0549   -3.2140   -8.3070 N   0  0  0  0  0  0  0  0  0  0  0  0
   51.8911   -3.2524   -7.6328 C   0  0  0  0  0  0  0  0  0  0  0  0
   50.7749   -2.4358   -7.6462 C   0  0  0  0  0  0  0  0  0  0  0  0
   49.7135   -2.7295   -6.8289 C   0  0  0  0  0  0  0  0  0  0  0  0
   49.7915   -3.8469   -6.0054 C   0  0  0  0  0  0  0  0  0  0  0  0
   50.8975   -4.6530   -5.9945 C   0  0  0  0  0  0  0  0  0  0  0  0
   51.9801   -4.3617   -6.8219 C   0  0  0  0  0  0  0  0  0  0  0  0
   55.4587   -4.5013   -8.5734 S   0  0  0  0  0  0  0  0  0  0  0  0
   55.7039   -4.3159  -10.3087 C   0  0  0  0  0  0  0  0  0  0  0  0
   57.0394   -4.3860  -10.8637 C   0  0  0  0  0  0  0  0  0  0  0  0
   58.0506   -4.7297  -10.2529 O   0  0  0  0  0  0  0  0  0  0  0  0
   57.1827   -4.0176  -12.2543 N   0  0  0  0  0  0  0  0  0  0  0  0
   56.1162   -3.5973  -13.1190 C   0  0  0  0  0  0  0  0  0  0  0  0
   56.6815   -3.7483  -14.5360 C   0  0  0  0  0  0  0  0  0  0  0  0
   58.1347   -3.4140  -14.3317 C   0  0  0  0  0  0  0  0  0  0  0  0
   58.4042   -4.0118  -13.0015 C   0  0  0  0  0  0  0  0  0  0  0  0
   59.4928   -4.4536  -12.5535 O   0  0  0  0  0  0  0  0  0  0  0  0
  1  2  1  0  0  0
  2  3  1  0  0  0
  3 11  1  0  0  0
 11 12  1  0  0  0
 12 13  1  0  0  0
 13 14  2  0  0  0
 13 15  1  0  0  0
 15 16  1  0  0  0
 16 17  1  0  0  0
 17 18  1  0  0  0
 18 19  1  0  0  0
 19 20  2  0  0  0
  3  4  2  0  0  0
  4  5  1  0  0  0
  5  6  2  0  0  0
  6  7  1  0  0  0
  7  8  2  0  0  0
  8  9  1  0  0  0
  9 10  2  0  0  0
 10  2  1  0  0  0
 19 15  1  0  0  0
 10  5  1  0  0  0
M  END
> <minimizedAffinity>
-8.08189

> <CNNscore>
0.5430170894

> <CNNaffinity>
5.5028944016

> <CNN_VS>
2.9881656170

> <CNNaffinity_variance>
0.0962172225

$$$$
[H]c1c([H])c([H])c2c(nc(SC([H])([H])C(=O)N3C(=O)C([H])([H])C([H])([H])C3([H])[H])n2C([H])([H])[H])c1[H]


 20 22  0  0  0  0  0  0  0  0999 V2000
   56.7785   -6.3058   -5.3906 C   0  0  0  0  0  0  0  0  0  0  0  0
   55.7903   -5.6894   -6.2799 N   0  0  0  0  0  0  0  0  0  0  0  0
   54.5046   -5.4297   -6.0883 C   0  0  0  0  0  0  0  0  0  0  0  0
   54.0432   -4.8019   -7.2093 N   0  0  0  0  0  0  0  0  0  0  0  0
   55.0345   -4.6661   -8.1088 C   0  0  0  0  0  0  0  0  0  0  0  0
   55.0789   -4.1117   -9.3751 C   0  0  0  0  0  0  0  0  0  0  0  0
   56.2589   -4.1183  -10.0741 C   0  0  0  0  0  0  0  0  0  0  0  0
   57.3829   -4.6861   -9.4852 C   0  0  0  0  0  0  0  0  0  0  0  0
   57.3356   -5.2339   -8.2318 C   0  0  0  0  0  0  0  0  0  0  0  0
   56.1408   -5.2311   -7.5150 C   0  0  0  0  0  0  0  0  0  0  0  0
   53.4811   -5.8174   -4.7274 S   0  0  0  0  0  0  0  0  0  0  0  0
   51.7818   -6.1673   -5.0361 C   0  0  0  0  0  0  0  0  0  0  0  0
   50.7561   -5.2712   -4.5445 C   0  0  0  0  0  0  0  0  0  0  0  0
   50.2423   -5.3166   -3.4276 O   0  0  0  0  0  0  0  0  0  0  0  0
   50.3065   -4.2410   -5.4536 N   0  0  0  0  0  0  0  0  0  0  0  0
   50.7950   -4.0364   -6.7882 C   0  0  0  0  0  0  0  0  0  0  0  0
   50.3478   -2.6161   -7.1529 C   0  0  0  0  0  0  0  0  0  0  0  0
   49.0331   -2.5051   -6.4289 C   0  0  0  0  0  0  0  0  0  0  0  0
   49.3058   -3.2544   -5.1785 C   0  0  0  0  0  0  0  0  0  0  0  0
   48.7822   -3.0953   -4.0464 O   0  0  0  0  0  0  0  0  0  0  0  0
  1  2  1  0  0  0
  2  3  1  0  0  0
  3 11  1  0  0  0
 11 12  1  0  0  0
 12 13  1  0  0  0
 13 14  2  0  0  0
 13 15  1  0  0  0
 15 16  1  0  0  0
 16 17  1  0  0  0
 17 18  1  0  0  0
 18 19  1  0  0  0
 19 20  2  0  0  0
  3  4  2  0  0  0
  4  5  1  0  0  0
  5  6  2  0  0  0
  6  7  1  0  0  0
  7  8  2  0  0  0
  8  9  1  0  0  0
  9 10  2  0  0  0
 10  2  1  0  0  0
 19 15  1  0  0  0
 10  5  1  0  0  0
M  END
> <minimizedAffinity>
-8.40492

> <CNNscore>
0.5023580194

> <CNNaffinity>
5.9082264900

> <CNN_VS>
2.9680449963

> <CNNaffinity_variance>
0.0745392144

$$$$
[H]c1c([H])c([H])c2c(nc(SC([H])([H])C(=O)N3C(=O)C([H])([H])C([H])([H])C3([H])[H])n2C([H])([H])[H])c1[H]


 20 22  0  0  0  0  0  0  0  0999 V2000
   52.8472   -6.2156   -7.1467 C   0  0  0  0  0  0  0  0  0  0  0  0
   52.6035   -4.8275   -7.5480 N   0  0  0  0  0  0  0  0  0  0  0  0
   53.3057   -4.0237   -8.3342 C   0  0  0  0  0  0  0  0  0  0  0  0
   52.6235   -2.8448   -8.4270 N   0  0  0  0  0  0  0  0  0  0  0  0
   51.4930   -2.9021   -7.6996 C   0  0  0  0  0  0  0  0  0  0  0  0
   50.4813   -1.9874   -7.4699 C   0  0  0  0  0  0  0  0  0  0  0  0
   49.4282   -2.3340   -6.6625 C   0  0  0  0  0  0  0  0  0  0  0  0
   49.4089   -3.6029   -6.0949 C   0  0  0  0  0  0  0  0  0  0  0  0
   50.4116   -4.5058   -6.3243 C   0  0  0  0  0  0  0  0  0  0  0  0
   51.4849   -4.1616   -7.1435 C   0  0  0  0  0  0  0  0  0  0  0  0
   54.8454   -4.2939   -9.1126 S   0  0  0  0  0  0  0  0  0  0  0  0
   56.2290   -4.7055   -8.1018 C   0  0  0  0  0  0  0  0  0  0  0  0
   56.2671   -4.2821   -6.7176 C   0  0  0  0  0  0  0  0  0  0  0  0
   56.4268   -3.1262   -6.3276 O   0  0  0  0  0  0  0  0  0  0  0  0
   56.1031   -5.3152   -5.7198 N   0  0  0  0  0  0  0  0  0  0  0  0
   55.9029   -6.7110   -5.9908 C   0  0  0  0  0  0  0  0  0  0  0  0
   55.3621   -7.2888   -4.6779 C   0  0  0  0  0  0  0  0  0  0  0  0
   56.0778   -6.4550   -3.6494 C   0  0  0  0  0  0  0  0  0  0  0  0
   56.1098   -5.1231   -4.3008 C   0  0  0  0  0  0  0  0  0  0  0  0
   56.1378   -3.9907   -3.7550 O   0  0  0  0  0  0  0  0  0  0  0  0
  1  2  1  0  0  0
  2  3  1  0  0  0
  3 11  1  0  0  0
 11 12  1  0  0  0
 12 13  1  0  0  0
 13 14  2  0  0  0
 13 15  1  0  0  0
 15 16  1  0  0  0
 16 17  1  0  0  0
 17 18  1  0  0  0
 18 19  1  0  0  0
 19 20  2  0  0  0
  3  4  2  0  0  0
  4  5  1  0  0  0
  5  6  2  0  0  0
  6  7  1  0  0  0
  7  8  2  0  0  0
  8  9  1  0  0  0
  9 10  2  0  0  0
 10  2  1  0  0  0
 19 15  1  0  0  0
 10  5  1  0  0  0
M  END
> <minimizedAffinity>
-7.60767

> <CNNscore>
0.5005562901

> <CNNaffinity>
5.8271765709

> <CNN_VS>
2.9168298244

> <CNNaffinity_variance>
0.1138249263

$$$$
[H]c1c([H])c([H])c2c(nc(SC([H])([H])C(=O)N3C(=O)C([H])([H])C([H])([H])C3([H])[H])n2C([H])([H])[H])c1[H]


 20 22  0  0  0  0  0  0  0  0999 V2000
   55.6754   -4.1053  -12.1897 C   0  0  0  0  0  0  0  0  0  0  0  0
   55.7993   -4.2366  -10.7354 N   0  0  0  0  0  0  0  0  0  0  0  0
   54.9183   -4.0034   -9.7727 C   0  0  0  0  0  0  0  0  0  0  0  0
   55.5130   -4.3279   -8.5875 N   0  0  0  0  0  0  0  0  0  0  0  0
   56.7680   -4.7639   -8.7997 C   0  0  0  0  0  0  0  0  0  0  0  0
   57.7632   -5.2017   -7.9449 C   0  0  0  0  0  0  0  0  0  0  0  0
   58.9727   -5.5921   -8.4603 C   0  0  0  0  0  0  0  0  0  0  0  0
   59.1639   -5.5356   -9.8362 C   0  0  0  0  0  0  0  0  0  0  0  0
   58.1771   -5.1019  -10.6795 C   0  0  0  0  0  0  0  0  0  0  0  0
   56.9454   -4.7037  -10.1639 C   0  0  0  0  0  0  0  0  0  0  0  0
   53.2999   -3.3558   -9.8775 S   0  0  0  0  0  0  0  0  0  0  0  0
   52.4911   -2.8890   -8.3830 C   0  0  0  0  0  0  0  0  0  0  0  0
   52.1934   -3.8873   -7.3774 C   0  0  0  0  0  0  0  0  0  0  0  0
   52.8804   -4.8766   -7.1264 O   0  0  0  0  0  0  0  0  0  0  0  0
   50.9831   -3.6934   -6.6111 N   0  0  0  0  0  0  0  0  0  0  0  0
   50.0665   -2.5987   -6.7640 C   0  0  0  0  0  0  0  0  0  0  0  0
   49.2285   -2.6103   -5.4803 C   0  0  0  0  0  0  0  0  0  0  0  0
   49.1505   -4.0808   -5.1695 C   0  0  0  0  0  0  0  0  0  0  0  0
   50.4969   -4.5530   -5.5741 C   0  0  0  0  0  0  0  0  0  0  0  0
   51.1473   -5.5293   -5.1216 O   0  0  0  0  0  0  0  0  0  0  0  0
  1  2  1  0  0  0
  2  3  1  0  0  0
  3 11  1  0  0  0
 11 12  1  0  0  0
 12 13  1  0  0  0
 13 14  2  0  0  0
 13 15  1  0  0  0
 15 16  1  0  0  0
 16 17  1  0  0  0
 17 18  1  0  0  0
 18 19  1  0  0  0
 19 20  2  0  0  0
  3  4  2  0  0  0
  4  5  1  0  0  0
  5  6  2  0  0  0
  6  7  1  0  0  0
  7  8  2  0  0  0
  8  9  1  0  0  0
  9 10  2  0  0  0
 10  2  1  0  0  0
 19 15  1  0  0  0
 10  5  1  0  0  0
M  END
> <minimizedAffinity>
-7.32006

> <CNNscore>
0.4402664900

> <CNNaffinity>
5.6178345680

> <CNN_VS>
2.4733443260

> <CNNaffinity_variance>
0.0443436243

$$$$
[H]c1c([H])c([H])c2c(nc(SC([H])([H])C(=O)N3C(=O)C([H])([H])C([H])([H])C3([H])[H])n2C([H])([H])[H])c1[H]


 20 22  0  0  0  0  0  0  0  0999 V2000
   51.1635   -3.5064   -7.5630 C   0  0  0  0  0  0  0  0  0  0  0  0
   52.3193   -4.3025   -7.1415 N   0  0  0  0  0  0  0  0  0  0  0  0
   52.4396   -5.1967   -6.1703 C   0  0  0  0  0  0  0  0  0  0  0  0
   53.7115   -5.6897   -6.2241 N   0  0  0  0  0  0  0  0  0  0  0  0
   54.3950   -5.1074   -7.2261 C   0  0  0  0  0  0  0  0  0  0  0  0
   55.6914   -5.2564   -7.6843 C   0  0  0  0  0  0  0  0  0  0  0  0
   56.1208   -4.5086   -8.7508 C   0  0  0  0  0  0  0  0  0  0  0  0
   55.2343   -3.6167   -9.3435 C   0  0  0  0  0  0  0  0  0  0  0  0
   53.9520   -3.4716   -8.8878 C   0  0  0  0  0  0  0  0  0  0  0  0
   53.5078   -4.2277   -7.8049 C   0  0  0  0  0  0  0  0  0  0  0  0
   51.2798   -5.6906   -4.9617 S   0  0  0  0  0  0  0  0  0  0  0  0
   51.8848   -6.2153   -3.3919 C   0  0  0  0  0  0  0  0  0  0  0  0
   50.9567   -6.5868   -2.3444 C   0  0  0  0  0  0  0  0  0  0  0  0
   49.9621   -5.9447   -2.0095 O   0  0  0  0  0  0  0  0  0  0  0  0
   51.2344   -7.8183   -1.6402 N   0  0  0  0  0  0  0  0  0  0  0  0
   52.3427   -8.6940   -1.8983 C   0  0  0  0  0  0  0  0  0  0  0  0
   51.9578  -10.0174   -1.2269 C   0  0  0  0  0  0  0  0  0  0  0  0
   51.1779   -9.5466   -0.0289 C   0  0  0  0  0  0  0  0  0  0  0  0
   50.4550   -8.3720   -0.5741 C   0  0  0  0  0  0  0  0  0  0  0  0
   49.3495   -7.8994   -0.2060 O   0  0  0  0  0  0  0  0  0  0  0  0
  1  2  1  0  0  0
  2  3  1  0  0  0
  3 11  1  0  0  0
 11 12  1  0  0  0
 12 13  1  0  0  0
 13 14  2  0  0  0
 13 15  1  0  0  0
 15 16  1  0  0  0
 16 17  1  0  0  0
 17 18  1  0  0  0
 18 19  1  0  0  0
 19 20  2  0  0  0
  3  4  2  0  0  0
  4  5  1  0  0  0
  5  6  2  0  0  0
  6  7  1  0  0  0
  7  8  2  0  0  0
  8  9  1  0  0  0
  9 10  2  0  0  0
 10  2  1  0  0  0
 19 15  1  0  0  0
 10  5  1  0  0  0
M  END
> <minimizedAffinity>
-7.20424

> <CNNscore>
0.4257087708

> <CNNaffinity>
5.6722993851

> <CNN_VS>
2.4147477150

> <CNNaffinity_variance>
0.2678512931

$$$$
[H]c1c([H])c([H])c2c(nc(SC([H])([H])C(=O)N3C(=O)C([H])([H])C([H])([H])C3([H])[H])n2C([H])([H])[H])c1[H]


 20 22  0  0  0  0  0  0  0  0999 V2000
   51.9670   -2.3046   -8.7109 C   0  0  0  0  0  0  0  0  0  0  0  0
   51.9157   -3.3363   -7.6714 N   0  0  0  0  0  0  0  0  0  0  0  0
   52.7489   -4.3329   -7.4071 C   0  0  0  0  0  0  0  0  0  0  0  0
   52.2745   -4.9798   -6.3024 N   0  0  0  0  0  0  0  0  0  0  0  0
   51.1428   -4.3947   -5.8698 C   0  0  0  0  0  0  0  0  0  0  0  0
   50.2942   -4.6672   -4.8122 C   0  0  0  0  0  0  0  0  0  0  0  0
   49.1884   -3.8807   -4.6138 C   0  0  0  0  0  0  0  0  0  0  0  0
   48.9514   -2.8257   -5.4877 C   0  0  0  0  0  0  0  0  0  0  0  0
   49.7931   -2.5587   -6.5333 C   0  0  0  0  0  0  0  0  0  0  0  0
   50.9188   -3.3528   -6.7418 C   0  0  0  0  0  0  0  0  0  0  0  0
   54.1788   -4.8469   -8.2679 S   0  0  0  0  0  0  0  0  0  0  0  0
   55.0463   -3.6523   -9.2301 C   0  0  0  0  0  0  0  0  0  0  0  0
   56.0037   -4.0817  -10.2279 C   0  0  0  0  0  0  0  0  0  0  0  0
   55.9030   -3.8998  -11.4405 O   0  0  0  0  0  0  0  0  0  0  0  0
   57.1719   -4.7829   -9.7447 N   0  0  0  0  0  0  0  0  0  0  0  0
   57.4559   -5.0791   -8.3687 C   0  0  0  0  0  0  0  0  0  0  0  0
   58.9509   -5.4176   -8.3440 C   0  0  0  0  0  0  0  0  0  0  0  0
   59.1443   -6.0836   -9.6797 C   0  0  0  0  0  0  0  0  0  0  0  0
   58.2386   -5.2957  -10.5506 C   0  0  0  0  0  0  0  0  0  0  0  0
   58.3393   -5.0807  -11.7854 O   0  0  0  0  0  0  0  0  0  0  0  0
  1  2  1  0  0  0
  2  3  1  0  0  0
  3 11  1  0  0  0
 11 12  1  0  0  0
 12 13  1  0  0  0
 13 14  2  0  0  0
 13 15  1  0  0  0
 15 16  1  0  0  0
 16 17  1  0  0  0
 17 18  1  0  0  0
 18 19  1  0  0  0
 19 20  2  0  0  0
  3  4  2  0  0  0
  4  5  1  0  0  0
  5  6  2  0  0  0
  6  7  1  0  0  0
  7  8  2  0  0  0
  8  9  1  0  0  0
  9 10  2  0  0  0
 10  2  1  0  0  0
 19 15  1  0  0  0
 10  5  1  0  0  0
M  END
> <minimizedAffinity>
-8.79553

> <CNNscore>
0.3681426644

> <CNNaffinity>
5.5857405663

> <CNN_VS>
2.0563495159

> <CNNaffinity_variance>
0.0710162967

$$$$
[H]c1c([H])c([H])c2c(nc(SC([H])([H])C(=O)N3C(=O)C([H])([H])C([H])([H])C3([H])[H])n2C([H])([H])[H])c1[H]


 20 22  0  0  0  0  0  0  0  0999 V2000
   51.9801   -2.6829   -8.5119 C   0  0  0  0  0  0  0  0  0  0  0  0
   51.8156   -3.5998   -7.3807 N   0  0  0  0  0  0  0  0  0  0  0  0
   52.5705   -4.6120   -6.9773 C   0  0  0  0  0  0  0  0  0  0  0  0
   52.0058   -5.1154   -5.8409 N   0  0  0  0  0  0  0  0  0  0  0  0
   50.8950   -4.4241   -5.5269 C   0  0  0  0  0  0  0  0  0  0  0  0
   49.9832   -4.5382   -4.4932 C   0  0  0  0  0  0  0  0  0  0  0  0
   48.9218   -3.6720   -4.4303 C   0  0  0  0  0  0  0  0  0  0  0  0
   48.7929   -2.6983   -5.4142 C   0  0  0  0  0  0  0  0  0  0  0  0
   49.6969   -2.5879   -6.4358 C   0  0  0  0  0  0  0  0  0  0  0  0
   50.7781   -3.4640   -6.5069 C   0  0  0  0  0  0  0  0  0  0  0  0
   54.0027   -5.2933   -7.7084 S   0  0  0  0  0  0  0  0  0  0  0  0
   55.4491   -4.2908   -7.7991 C   0  0  0  0  0  0  0  0  0  0  0  0
   56.6662   -4.8244   -8.3739 C   0  0  0  0  0  0  0  0  0  0  0  0
   57.5266   -5.4587   -7.7647 O   0  0  0  0  0  0  0  0  0  0  0  0
   56.8761   -4.5837   -9.7838 N   0  0  0  0  0  0  0  0  0  0  0  0
   55.9803   -3.8695  -10.6495 C   0  0  0  0  0  0  0  0  0  0  0  0
   56.4150   -4.2596  -12.0669 C   0  0  0  0  0  0  0  0  0  0  0  0
   57.9029   -4.4193  -11.9064 C   0  0  0  0  0  0  0  0  0  0  0  0
   58.0043   -5.0160  -10.5524 C   0  0  0  0  0  0  0  0  0  0  0  0
   58.8996   -5.7754  -10.1021 O   0  0  0  0  0  0  0  0  0  0  0  0
  1  2  1  0  0  0
  2  3  1  0  0  0
  3 11  1  0  0  0
 11 12  1  0  0  0
 12 13  1  0  0  0
 13 14  2  0  0  0
 13 15  1  0  0  0
 15 16  1  0  0  0
 16 17  1  0  0  0
 17 18  1  0  0  0
 18 19  1  0  0  0
 19 20  2  0  0  0
  3  4  2  0  0  0
  4  5  1  0  0  0
  5  6  2  0  0  0
  6  7  1  0  0  0
  7  8  2  0  0  0
  8  9  1  0  0  0
  9 10  2  0  0  0
 10  2  1  0  0  0
 19 15  1  0  0  0
 10  5  1  0  0  0
M  END
> <minimizedAffinity>
-8.93097

> <CNNscore>
0.3177337348

> <CNNaffinity>
5.4551534653

> <CNN_VS>
1.7332862616

> <CNNaffinity_variance>
0.1702010930

$$$$
[H]c1c(C([H])([H])[H])c([H])c2c(c1C(F)(F)F)C(=O)N1C([H])([H])C([H])([H])N([H])C([H])([H])[C@@]21[H]


 20 22  0  0  0  0  0  0  0  0999 V2000
   61.8823   -3.8217  -14.6125 C   0  0  0  0  0  0  0  0  0  0  0  0
   62.4401   -5.1213  -14.1527 C   0  0  0  0  0  0  0  0  0  0  0  0
   63.0138   -5.9334  -15.1059 C   0  0  0  0  0  0  0  0  0  0  0  0
   63.5446   -7.1425  -14.7445 C   0  0  0  0  0  0  0  0  0  0  0  0
   63.4942   -7.5364  -13.4022 C   0  0  0  0  0  0  0  0  0  0  0  0
   62.9306   -6.7487  -12.4334 C   0  0  0  0  0  0  0  0  0  0  0  0
   62.4005   -5.5276  -12.8294 C   0  0  0  0  0  0  0  0  0  0  0  0
   64.1080   -8.8646  -13.3785 C   0  0  0  0  0  0  0  0  0  0  0  0
   64.2520   -9.5533  -12.3529 O   0  0  0  0  0  0  0  0  0  0  0  0
   64.5076   -9.2492  -14.6643 N   0  0  0  0  0  0  0  0  0  0  0  0
   65.0901  -10.4350  -15.2402 C   0  0  0  0  0  0  0  0  0  0  0  0
   64.3152  -10.8592  -16.4861 C   0  0  0  0  0  0  0  0  0  0  0  0
   64.1984   -9.7332  -17.3559 N   0  0  0  0  0  0  0  0  0  0  0  0
   63.4816   -8.6075  -16.7795 C   0  0  0  0  0  0  0  0  0  0  0  0
   64.2222   -8.1538  -15.5621 C   0  0  0  0  0  0  0  0  0  0  0  0
   63.7771   -9.9556  -18.2771 H   0  0  0  0  0  0  0  0  0  0  0  0
   62.8985   -7.1842  -11.0204 C   0  0  0  0  0  0  0  0  0  0  0  0
   62.2714   -6.3276  -10.1702 F   0  0  0  0  0  0  0  0  0  0  0  0
   64.1950   -7.4918  -10.5835 F   0  0  0  0  0  0  0  0  0  0  0  0
   62.2103   -8.4035  -10.9273 F   0  0  0  0  0  0  0  0  0  0  0  0
  1  2  1  0  0  0
  2  3  2  0  0  0
  3  4  1  0  0  0
  4  5  2  0  0  0
  5  6  1  0  0  0
  6 17  1  0  0  0
 17 18  1  0  0  0
 17 19  1  0  0  0
 17 20  1  0  0  0
  6  7  2  0  0  0
  5  8  1  0  0  0
  8  9  2  0  0  0
  8 10  1  0  0  0
 10 11  1  0  0  0
 11 12  1  0  0  0
 12 13  1  0  0  0
 13 14  1  0  0  0
 14 15  1  0  0  0
  7  2  1  0  0  0
 15 10  1  0  0  0
 15  4  1  0  0  0
 13 16  1  0  0  0
M  END
> <minimizedAffinity>
-2.18461

> <CNNscore>
0.6021865606

> <CNNaffinity>
3.2936797142

> <CNN_VS>
1.9834096432

> <CNNaffinity_variance>
0.0743452758

$$$$
[H]c1c(C([H])([H])[H])c([H])c2c(c1C(F)(F)F)C(=O)N1C([H])([H])C([H])([H])N([H])C([H])([H])[C@@]21[H]


 20 22  0  0  0  0  0  0  0  0999 V2000
   64.8787  -10.6772  -15.0007 C   0  0  0  0  0  0  0  0  0  0  0  0
   64.3646   -9.7953  -13.9193 C   0  0  0  0  0  0  0  0  0  0  0  0
   64.1306  -10.3744  -12.6917 C   0  0  0  0  0  0  0  0  0  0  0  0
   63.6569   -9.6144  -11.6561 C   0  0  0  0  0  0  0  0  0  0  0  0
   63.4155   -8.2514  -11.8643 C   0  0  0  0  0  0  0  0  0  0  0  0
   63.6400   -7.6492  -13.0741 C   0  0  0  0  0  0  0  0  0  0  0  0
   64.1209   -8.4449  -14.1059 C   0  0  0  0  0  0  0  0  0  0  0  0
   62.8955   -7.7638  -10.5864 C   0  0  0  0  0  0  0  0  0  0  0  0
   62.5612   -6.5859  -10.3678 O   0  0  0  0  0  0  0  0  0  0  0  0
   62.8270   -8.8028   -9.6500 N   0  0  0  0  0  0  0  0  0  0  0  0
   62.3533   -8.9255   -8.2944 C   0  0  0  0  0  0  0  0  0  0  0  0
   61.4400  -10.1419   -8.1564 C   0  0  0  0  0  0  0  0  0  0  0  0
   62.1145  -11.2815   -8.6896 N   0  0  0  0  0  0  0  0  0  0  0  0
   62.4516  -11.1684  -10.0991 C   0  0  0  0  0  0  0  0  0  0  0  0
   63.3605   -9.9933  -10.2708 C   0  0  0  0  0  0  0  0  0  0  0  0
   61.6100  -12.1757   -8.5420 H   0  0  0  0  0  0  0  0  0  0  0  0
   63.3856   -6.2049  -13.2653 C   0  0  0  0  0  0  0  0  0  0  0  0
   62.1507   -5.7840  -12.8809 F   0  0  0  0  0  0  0  0  0  0  0  0
   63.6693   -5.8389  -14.5891 F   0  0  0  0  0  0  0  0  0  0  0  0
   64.3059   -5.4681  -12.5044 F   0  0  0  0  0  0  0  0  0  0  0  0
  1  2  1  0  0  0
  2  3  2  0  0  0
  3  4  1  0  0  0
  4  5  2  0  0  0
  5  6  1  0  0  0
  6 17  1  0  0  0
 17 18  1  0  0  0
 17 19  1  0  0  0
 17 20  1  0  0  0
  6  7  2  0  0  0
  5  8  1  0  0  0
  8  9  2  0  0  0
  8 10  1  0  0  0
 10 11  1  0  0  0
 11 12  1  0  0  0
 12 13  1  0  0  0
 13 14  1  0  0  0
 14 15  1  0  0  0
  7  2  1  0  0  0
 15 10  1  0  0  0
 15  4  1  0  0  0
 13 16  1  0  0  0
M  END
> <minimizedAffinity>
-2.53351

> <CNNscore>
0.5483700037

> <CNNaffinity>
3.4579167366

> <CNN_VS>
1.8962178230

> <CNNaffinity_variance>
0.0408920199

$$$$
[H]c1c(C([H])([H])[H])c([H])c2c(c1C(F)(F)F)C(=O)N1C([H])([H])C([H])([H])N([H])C([H])([H])[C@@]21[H]


 20 22  0  0  0  0  0  0  0  0999 V2000
   62.1299  -13.3535   -7.9159 C   0  0  0  0  0  0  0  0  0  0  0  0
   62.5770  -11.9428   -8.0634 C   0  0  0  0  0  0  0  0  0  0  0  0
   62.9486  -11.2765   -6.9166 C   0  0  0  0  0  0  0  0  0  0  0  0
   63.3694   -9.9756   -6.9875 C   0  0  0  0  0  0  0  0  0  0  0  0
   63.4143   -9.3396   -8.2336 C   0  0  0  0  0  0  0  0  0  0  0  0
   63.0513   -9.9781   -9.3900 C   0  0  0  0  0  0  0  0  0  0  0  0
   62.6291  -11.2973   -9.2874 C   0  0  0  0  0  0  0  0  0  0  0  0
   63.8675   -7.9788   -7.9434 C   0  0  0  0  0  0  0  0  0  0  0  0
   64.0368   -7.0966   -8.8036 O   0  0  0  0  0  0  0  0  0  0  0  0
   64.0824   -7.8102   -6.5699 N   0  0  0  0  0  0  0  0  0  0  0  0
   64.4587   -6.7059   -5.7237 C   0  0  0  0  0  0  0  0  0  0  0  0
   63.5132   -6.6030   -4.5286 C   0  0  0  0  0  0  0  0  0  0  0  0
   63.4383   -7.8802   -3.8951 N   0  0  0  0  0  0  0  0  0  0  0  0
   62.9225   -8.9385   -4.7478 C   0  0  0  0  0  0  0  0  0  0  0  0
   63.8345   -9.0788   -5.9246 C   0  0  0  0  0  0  0  0  0  0  0  0
   62.8996   -7.8788   -3.0088 H   0  0  0  0  0  0  0  0  0  0  0  0
   63.1168   -9.2862  -10.6955 C   0  0  0  0  0  0  0  0  0  0  0  0
   64.3450   -8.8072  -11.0300 F   0  0  0  0  0  0  0  0  0  0  0  0
   62.1356   -8.2862  -10.7582 F   0  0  0  0  0  0  0  0  0  0  0  0
   62.7545  -10.1821  -11.7129 F   0  0  0  0  0  0  0  0  0  0  0  0
  1  2  1  0  0  0
  2  3  2  0  0  0
  3  4  1  0  0  0
  4  5  2  0  0  0
  5  6  1  0  0  0
  6 17  1  0  0  0
 17 18  1  0  0  0
 17 19  1  0  0  0
 17 20  1  0  0  0
  6  7  2  0  0  0
  5  8  1  0  0  0
  8  9  2  0  0  0
  8 10  1  0  0  0
 10 11  1  0  0  0
 11 12  1  0  0  0
 12 13  1  0  0  0
 13 14  1  0  0  0
 14 15  1  0  0  0
  7  2  1  0  0  0
 15 10  1  0  0  0
 15  4  1  0  0  0
 13 16  1  0  0  0
M  END
> <minimizedAffinity>
-2.23192

> <CNNscore>
0.5320324898

> <CNNaffinity>
3.5145835876

> <CNN_VS>
1.8698726892

> <CNNaffinity_variance>
0.2453613728

$$$$
[H]c1c(C([H])([H])[H])c([H])c2c(c1C(F)(F)F)C(=O)N1C([H])([H])C([H])([H])N([H])C([H])([H])[C@@]21[H]


 20 22  0  0  0  0  0  0  0  0999 V2000
   64.3366   -9.3162  -13.3093 C   0  0  0  0  0  0  0  0  0  0  0  0
   63.7869   -9.1509  -11.9374 C   0  0  0  0  0  0  0  0  0  0  0  0
   64.1310  -10.1014  -11.0019 C   0  0  0  0  0  0  0  0  0  0  0  0
   63.6562  -10.0041   -9.7215 C   0  0  0  0  0  0  0  0  0  0  0  0
   62.8220   -8.9324   -9.3823 C   0  0  0  0  0  0  0  0  0  0  0  0
   62.4643   -7.9726  -10.2920 C   0  0  0  0  0  0  0  0  0  0  0  0
   62.9612   -8.0971  -11.5829 C   0  0  0  0  0  0  0  0  0  0  0  0
   62.4813   -9.1534   -7.9765 C   0  0  0  0  0  0  0  0  0  0  0  0
   61.7498   -8.4043   -7.3051 O   0  0  0  0  0  0  0  0  0  0  0  0
   63.0903  -10.3193   -7.4960 N   0  0  0  0  0  0  0  0  0  0  0  0
   63.0655  -11.0453   -6.2513 C   0  0  0  0  0  0  0  0  0  0  0  0
   62.8128  -12.5301   -6.5045 C   0  0  0  0  0  0  0  0  0  0  0  0
   63.7470  -12.9919   -7.4803 N   0  0  0  0  0  0  0  0  0  0  0  0
   63.6432  -12.3236   -8.7670 C   0  0  0  0  0  0  0  0  0  0  0  0
   63.9011  -10.8652   -8.5601 C   0  0  0  0  0  0  0  0  0  0  0  0
   63.7184  -14.0166   -7.6376 H   0  0  0  0  0  0  0  0  0  0  0  0
   61.5888   -6.8449   -9.9056 C   0  0  0  0  0  0  0  0  0  0  0  0
   60.3831   -7.2053   -9.3897 F   0  0  0  0  0  0  0  0  0  0  0  0
   61.4477   -5.9566  -10.9816 F   0  0  0  0  0  0  0  0  0  0  0  0
   62.2268   -6.0815   -8.9161 F   0  0  0  0  0  0  0  0  0  0  0  0
  1  2  1  0  0  0
  2  3  2  0  0  0
  3  4  1  0  0  0
  4  5  2  0  0  0
  5  6  1  0  0  0
  6 17  1  0  0  0
 17 18  1  0  0  0
 17 19  1  0  0  0
 17 20  1  0  0  0
  6  7  2  0  0  0
  5  8  1  0  0  0
  8  9  2  0  0  0
  8 10  1  0  0  0
 10 11  1  0  0  0
 11 12  1  0  0  0
 12 13  1  0  0  0
 13 14  1  0  0  0
 14 15  1  0  0  0
  7  2  1  0  0  0
 15 10  1  0  0  0
 15  4  1  0  0  0
 13 16  1  0  0  0
M  END
> <minimizedAffinity>
-2.66995

> <CNNscore>
0.4534524381

> <CNNaffinity>
3.4122784138

> <CNN_VS>
1.5473059416

> <CNNaffinity_variance>
0.1749546379

$$$$
[H]c1c(C([H])([H])[H])c([H])c2c(c1C(F)(F)F)C(=O)N1C([H])([H])C([H])([H])N([H])C([H])([H])[C@@]21[H]


 20 22  0  0  0  0  0  0  0  0999 V2000
   59.9618  -13.0027   -4.8390 C   0  0  0  0  0  0  0  0  0  0  0  0
   60.8890  -12.0841   -5.5519 C   0  0  0  0  0  0  0  0  0  0  0  0
   61.5144  -11.1130   -4.8017 C   0  0  0  0  0  0  0  0  0  0  0  0
   62.3793  -10.2371   -5.4010 C   0  0  0  0  0  0  0  0  0  0  0  0
   62.6145  -10.3436   -6.7767 C   0  0  0  0  0  0  0  0  0  0  0  0
   62.0070  -11.2999   -7.5469 C   0  0  0  0  0  0  0  0  0  0  0  0
   61.1350  -12.1747   -6.9117 C   0  0  0  0  0  0  0  0  0  0  0  0
   63.5429   -9.2548   -7.0833 C   0  0  0  0  0  0  0  0  0  0  0  0
   63.9959   -9.0166   -8.2168 O   0  0  0  0  0  0  0  0  0  0  0  0
   63.8476   -8.5232   -5.9288 N   0  0  0  0  0  0  0  0  0  0  0  0
   64.6279   -7.3458   -5.6429 C   0  0  0  0  0  0  0  0  0  0  0  0
   63.8236   -6.3664   -4.7905 C   0  0  0  0  0  0  0  0  0  0  0  0
   63.3068   -7.0653   -3.6580 N   0  0  0  0  0  0  0  0  0  0  0  0
   62.4131   -8.1621   -3.9921 C   0  0  0  0  0  0  0  0  0  0  0  0
   63.1733   -9.1517   -4.8163 C   0  0  0  0  0  0  0  0  0  0  0  0
   62.8341   -6.4538   -2.9665 H   0  0  0  0  0  0  0  0  0  0  0  0
   62.2799  -11.3971   -8.9972 C   0  0  0  0  0  0  0  0  0  0  0  0
   63.5801  -11.6289   -9.3220 F   0  0  0  0  0  0  0  0  0  0  0  0
   61.7741  -10.2679   -9.6573 F   0  0  0  0  0  0  0  0  0  0  0  0
   61.5445  -12.4636   -9.5362 F   0  0  0  0  0  0  0  0  0  0  0  0
  1  2  1  0  0  0
  2  3  2  0  0  0
  3  4  1  0  0  0
  4  5  2  0  0  0
  5  6  1  0  0  0
  6 17  1  0  0  0
 17 18  1  0  0  0
 17 19  1  0  0  0
 17 20  1  0  0  0
  6  7  2  0  0  0
  5  8  1  0  0  0
  8  9  2  0  0  0
  8 10  1  0  0  0
 10 11  1  0  0  0
 11 12  1  0  0  0
 12 13  1  0  0  0
 13 14  1  0  0  0
 14 15  1  0  0  0
  7  2  1  0  0  0
 15 10  1  0  0  0
 15  4  1  0  0  0
 13 16  1  0  0  0
M  END
> <minimizedAffinity>
-2.99619

> <CNNscore>
0.4392186701

> <CNNaffinity>
3.3954002857

> <CNN_VS>
1.4913232327

> <CNNaffinity_variance>
0.0708733276

$$$$
[H]c1c(C([H])([H])[H])c([H])c2c(c1C(F)(F)F)C(=O)N1C([H])([H])C([H])([H])N([H])C([H])([H])[C@@]21[H]


 20 22  0  0  0  0  0  0  0  0999 V2000
   63.5667   -8.3031  -11.9507 C   0  0  0  0  0  0  0  0  0  0  0  0
   63.6059   -8.3651  -10.4653 C   0  0  0  0  0  0  0  0  0  0  0  0
   63.1292   -9.5120   -9.8698 C   0  0  0  0  0  0  0  0  0  0  0  0
   63.1387   -9.6289   -8.5057 C   0  0  0  0  0  0  0  0  0  0  0  0
   63.6356   -8.5725   -7.7335 C   0  0  0  0  0  0  0  0  0  0  0  0
   64.1164   -7.4211   -8.2990 C   0  0  0  0  0  0  0  0  0  0  0  0
   64.0946   -7.3309   -9.6848 C   0  0  0  0  0  0  0  0  0  0  0  0
   63.4689   -9.0112   -6.3474 C   0  0  0  0  0  0  0  0  0  0  0  0
   63.7986   -8.3395   -5.3539 O   0  0  0  0  0  0  0  0  0  0  0  0
   62.8895  -10.2850   -6.2968 N   0  0  0  0  0  0  0  0  0  0  0  0
   62.4472  -11.1640   -5.2438 C   0  0  0  0  0  0  0  0  0  0  0  0
   61.0382  -11.6773   -5.5337 C   0  0  0  0  0  0  0  0  0  0  0  0
   61.0130  -12.2196   -6.8541 N   0  0  0  0  0  0  0  0  0  0  0  0
   61.3326  -11.2600   -7.8981 C   0  0  0  0  0  0  0  0  0  0  0  0
   62.7157  -10.7459   -7.6550 C   0  0  0  0  0  0  0  0  0  0  0  0
   60.1209  -12.6885   -7.0990 H   0  0  0  0  0  0  0  0  0  0  0  0
   64.6447   -6.3231   -7.4607 C   0  0  0  0  0  0  0  0  0  0  0  0
   65.7128   -6.6551   -6.6868 F   0  0  0  0  0  0  0  0  0  0  0  0
   63.6097   -5.7587   -6.7012 F   0  0  0  0  0  0  0  0  0  0  0  0
   65.0707   -5.2729   -8.2880 F   0  0  0  0  0  0  0  0  0  0  0  0
  1  2  1  0  0  0
  2  3  2  0  0  0
  3  4  1  0  0  0
  4  5  2  0  0  0
  5  6  1  0  0  0
  6 17  1  0  0  0
 17 18  1  0  0  0
 17 19  1  0  0  0
 17 20  1  0  0  0
  6  7  2  0  0  0
  5  8  1  0  0  0
  8  9  2  0  0  0
  8 10  1  0  0  0
 10 11  1  0  0  0
 11 12  1  0  0  0
 12 13  1  0  0  0
 13 14  1  0  0  0
 14 15  1  0  0  0
  7  2  1  0  0  0
 15 10  1  0  0  0
 15  4  1  0  0  0
 13 16  1  0  0  0
M  END
> <minimizedAffinity>
-2.17306

> <CNNscore>
0.4285797775

> <CNNaffinity>
3.4338994026

> <CNN_VS>
1.4716998339

> <CNNaffinity_variance>
0.1826380342

$$$$
[H]c1c(C([H])([H])[H])c([H])c2c(c1C(F)(F)F)C(=O)N1C([H])([H])C([H])([H])N([H])C([H])([H])[C@@]21[H]


 20 22  0  0  0  0  0  0  0  0999 V2000
   59.3458   -5.1933  -11.3813 C   0  0  0  0  0  0  0  0  0  0  0  0
   59.3150   -5.6738   -9.9742 C   0  0  0  0  0  0  0  0  0  0  0  0
   58.1592   -5.4534   -9.2583 C   0  0  0  0  0  0  0  0  0  0  0  0
   58.0698   -5.8724   -7.9579 C   0  0  0  0  0  0  0  0  0  0  0  0
   59.1633   -6.5219   -7.3733 C   0  0  0  0  0  0  0  0  0  0  0  0
   60.3245   -6.7549   -8.0619 C   0  0  0  0  0  0  0  0  0  0  0  0
   60.3861   -6.3190   -9.3791 C   0  0  0  0  0  0  0  0  0  0  0  0
   58.7448   -6.7956   -5.9981 C   0  0  0  0  0  0  0  0  0  0  0  0
   59.4506   -7.3705   -5.1506 O   0  0  0  0  0  0  0  0  0  0  0  0
   57.4466   -6.3221   -5.7713 N   0  0  0  0  0  0  0  0  0  0  0  0
   56.5689   -6.2565   -4.6301 C   0  0  0  0  0  0  0  0  0  0  0  0
   55.9848   -4.8526   -4.4861 C   0  0  0  0  0  0  0  0  0  0  0  0
   55.4159   -4.4648   -5.7367 N   0  0  0  0  0  0  0  0  0  0  0  0
   56.3686   -4.4120   -6.8334 C   0  0  0  0  0  0  0  0  0  0  0  0
   56.9513   -5.7773   -7.0144 C   0  0  0  0  0  0  0  0  0  0  0  0
   54.9012   -3.5650   -5.7034 H   0  0  0  0  0  0  0  0  0  0  0  0
   61.4622   -7.4517   -7.4237 C   0  0  0  0  0  0  0  0  0  0  0  0
   62.5931   -7.5126   -8.1768 F   0  0  0  0  0  0  0  0  0  0  0  0
   61.0620   -8.7224   -6.9857 F   0  0  0  0  0  0  0  0  0  0  0  0
   61.8129   -6.7801   -6.2426 F   0  0  0  0  0  0  0  0  0  0  0  0
  1  2  1  0  0  0
  2  3  2  0  0  0
  3  4  1  0  0  0
  4  5  2  0  0  0
  5  6  1  0  0  0
  6 17  1  0  0  0
 17 18  1  0  0  0
 17 19  1  0  0  0
 17 20  1  0  0  0
  6  7  2  0  0  0
  5  8  1  0  0  0
  8  9  2  0  0  0
  8 10  1  0  0  0
 10 11  1  0  0  0
 11 12  1  0  0  0
 12 13  1  0  0  0
 13 14  1  0  0  0
 14 15  1  0  0  0
  7  2  1  0  0  0
 15 10  1  0  0  0
 15  4  1  0  0  0
 13 16  1  0  0  0
M  END
> <minimizedAffinity>
4.14615

> <CNNscore>
0.4234098196

> <CNNaffinity>
4.1538639069

> <CNN_VS>
1.7587867975

> <CNNaffinity_variance>
0.3339242339

$$$$
[H]c1c(C([H])([H])[H])c([H])c2c(c1C(F)(F)F)C(=O)N1C([H])([H])C([H])([H])N([H])C([H])([H])[C@@]21[H]


 20 22  0  0  0  0  0  0  0  0999 V2000
   56.6330   -3.9795  -10.2307 C   0  0  0  0  0  0  0  0  0  0  0  0
   55.7301   -4.3497   -9.1085 C   0  0  0  0  0  0  0  0  0  0  0  0
   54.4185   -3.9379   -9.1930 C   0  0  0  0  0  0  0  0  0  0  0  0
   53.5385   -4.2478   -8.1910 C   0  0  0  0  0  0  0  0  0  0  0  0
   53.9903   -4.9828   -7.0888 C   0  0  0  0  0  0  0  0  0  0  0  0
   55.2887   -5.4058   -6.9790 C   0  0  0  0  0  0  0  0  0  0  0  0
   56.1585   -5.0770   -8.0107 C   0  0  0  0  0  0  0  0  0  0  0  0
   52.8228   -5.1030   -6.2148 C   0  0  0  0  0  0  0  0  0  0  0  0
   52.8216   -5.6976   -5.1224 O   0  0  0  0  0  0  0  0  0  0  0  0
   51.7140   -4.4585   -6.7772 N   0  0  0  0  0  0  0  0  0  0  0  0
   50.3596   -4.2033   -6.3560 C   0  0  0  0  0  0  0  0  0  0  0  0
   50.0056   -2.7317   -6.5597 C   0  0  0  0  0  0  0  0  0  0  0  0
   50.3225   -2.3682   -7.9034 N   0  0  0  0  0  0  0  0  0  0  0  0
   51.7285   -2.5121   -8.2434 C   0  0  0  0  0  0  0  0  0  0  0  0
   52.1081   -3.9481   -8.0701 C   0  0  0  0  0  0  0  0  0  0  0  0
   50.0165   -1.4119   -8.1635 H   0  0  0  0  0  0  0  0  0  0  0  0
   55.7386   -6.1893   -5.8081 C   0  0  0  0  0  0  0  0  0  0  0  0
   55.1967   -7.4327   -5.7072 F   0  0  0  0  0  0  0  0  0  0  0  0
   55.5530   -5.4460   -4.6334 F   0  0  0  0  0  0  0  0  0  0  0  0
   57.1281   -6.3713   -5.8791 F   0  0  0  0  0  0  0  0  0  0  0  0
  1  2  1  0  0  0
  2  3  2  0  0  0
  3  4  1  0  0  0
  4  5  2  0  0  0
  5  6  1  0  0  0
  6 17  1  0  0  0
 17 18  1  0  0  0
 17 19  1  0  0  0
 17 20  1  0  0  0
  6  7  2  0  0  0
  5  8  1  0  0  0
  8  9  2  0  0  0
  8 10  1  0  0  0
 10 11  1  0  0  0
 11 12  1  0  0  0
 12 13  1  0  0  0
 13 14  1  0  0  0
 14 15  1  0  0  0
  7  2  1  0  0  0
 15 10  1  0  0  0
 15  4  1  0  0  0
 13 16  1  0  0  0
M  END
> <minimizedAffinity>
-8.69214

> <CNNscore>
0.3700802326

> <CNNaffinity>
5.6675987244

> <CNN_VS>
2.0974662304

> <CNNaffinity_variance>
0.1373548806

$$$$
[H]c1c(C([H])([H])[H])c([H])c2c(c1C(F)(F)F)C(=O)N1C([H])([H])C([H])([H])N([H])C([H])([H])[C@@]21[H]


 20 22  0  0  0  0  0  0  0  0999 V2000
   60.7826  -11.8757   -7.6344 C   0  0  0  0  0  0  0  0  0  0  0  0
   61.5117  -10.6021   -7.3936 C   0  0  0  0  0  0  0  0  0  0  0  0
   62.2539  -10.5101   -6.2370 C   0  0  0  0  0  0  0  0  0  0  0  0
   62.9474   -9.3628   -5.9589 C   0  0  0  0  0  0  0  0  0  0  0  0
   62.8893   -8.2943   -6.8613 C   0  0  0  0  0  0  0  0  0  0  0  0
   62.1599   -8.3586   -8.0192 C   0  0  0  0  0  0  0  0  0  0  0  0
   61.4671   -9.5349   -8.2749 C   0  0  0  0  0  0  0  0  0  0  0  0
   63.7007   -7.2420   -6.2484 C   0  0  0  0  0  0  0  0  0  0  0  0
   63.8968   -6.1225   -6.7536 O   0  0  0  0  0  0  0  0  0  0  0  0
   64.2218   -7.6693   -5.0209 N   0  0  0  0  0  0  0  0  0  0  0  0
   65.0115   -7.0610   -3.9800 C   0  0  0  0  0  0  0  0  0  0  0  0
   64.3783   -7.3134   -2.6132 C   0  0  0  0  0  0  0  0  0  0  0  0
   64.1326   -8.7131   -2.4759 N   0  0  0  0  0  0  0  0  0  0  0  0
   63.2199   -9.2575   -3.4677 C   0  0  0  0  0  0  0  0  0  0  0  0
   63.8161   -9.0417   -4.8220 C   0  0  0  0  0  0  0  0  0  0  0  0
   63.7997   -8.9909   -1.5337 H   0  0  0  0  0  0  0  0  0  0  0  0
   62.1226   -7.2187   -8.9606 C   0  0  0  0  0  0  0  0  0  0  0  0
   63.3301   -6.8560   -9.4706 F   0  0  0  0  0  0  0  0  0  0  0  0
   61.4608   -6.1315   -8.3717 F   0  0  0  0  0  0  0  0  0  0  0  0
   61.3165   -7.5522  -10.0597 F   0  0  0  0  0  0  0  0  0  0  0  0
  1  2  1  0  0  0
  2  3  2  0  0  0
  3  4  1  0  0  0
  4  5  2  0  0  0
  5  6  1  0  0  0
  6 17  1  0  0  0
 17 18  1  0  0  0
 17 19  1  0  0  0
 17 20  1  0  0  0
  6  7  2  0  0  0
  5  8  1  0  0  0
  8  9  2  0  0  0
  8 10  1  0  0  0
 10 11  1  0  0  0
 11 12  1  0  0  0
 12 13  1  0  0  0
 13 14  1  0  0  0
 14 15  1  0  0  0
  7  2  1  0  0  0
 15 10  1  0  0  0
 15  4  1  0  0  0
 13 16  1  0  0  0
M  END
> <minimizedAffinity>
-2.85652

> <CNNscore>
0.3634670973

> <CNNaffinity>
3.2953541279

> <CNN_VS>
1.1977528334

> <CNNaffinity_variance>
0.2324035913

$$$$
[H]N=C1c2c([H])nc([H])nc2C([H])([H])[C@](c2c([H])c(-c3c([H])nc([H])c(Cl)c3[H])c([H])c([H])c2F)(C([H])([H])[H])N1[H]


 28 31  0  0  0  0  0  0  0  0999 V2000
   55.3131   -3.1828   -7.2610 C   0  0  0  0  0  0  0  0  0  0  0  0
   55.0189   -4.1045   -8.4053 C   0  0  0  0  0  0  0  0  0  0  0  0
   54.4028   -5.3597   -7.8374 C   0  0  0  0  0  0  0  0  0  0  0  0
   53.1422   -5.0574   -7.1326 C   0  0  0  0  0  0  0  0  0  0  0  0
   52.7576   -5.8257   -6.0935 N   0  0  0  0  0  0  0  0  0  0  0  0
   51.6130   -5.6044   -5.4239 C   0  0  0  0  0  0  0  0  0  0  0  0
   50.8503   -4.5753   -5.8298 N   0  0  0  0  0  0  0  0  0  0  0  0
   51.1966   -3.7742   -6.8704 C   0  0  0  0  0  0  0  0  0  0  0  0
   52.3622   -4.0060   -7.5457 C   0  0  0  0  0  0  0  0  0  0  0  0
   52.7793   -3.1453   -8.6732 C   0  0  0  0  0  0  0  0  0  0  0  0
   52.0754   -2.1739   -9.0774 N   0  0  0  0  0  0  0  0  0  0  0  0
   54.0208   -3.4898   -9.2716 N   0  0  0  0  0  0  0  0  0  0  0  0
   51.1775   -1.8257   -8.7452 H   0  0  0  0  0  0  0  0  0  0  0  0
   54.1636   -3.2922  -10.2845 H   0  0  0  0  0  0  0  0  0  0  0  0
   56.2411   -4.4679   -9.1677 C   0  0  0  0  0  0  0  0  0  0  0  0
   56.4348   -4.0952  -10.4794 C   0  0  0  0  0  0  0  0  0  0  0  0
   57.5872   -4.4510  -11.1755 C   0  0  0  0  0  0  0  0  0  0  0  0
   58.5421   -5.1952  -10.5102 C   0  0  0  0  0  0  0  0  0  0  0  0
   58.3808   -5.5908   -9.1814 C   0  0  0  0  0  0  0  0  0  0  0  0
   57.2183   -5.2097   -8.5413 C   0  0  0  0  0  0  0  0  0  0  0  0
   57.0180   -5.5741   -7.2407 F   0  0  0  0  0  0  0  0  0  0  0  0
   57.8147   -4.0705  -12.5632 C   0  0  0  0  0  0  0  0  0  0  0  0
   59.0975   -3.8436  -13.0088 C   0  0  0  0  0  0  0  0  0  0  0  0
   59.3426   -3.4850  -14.2953 N   0  0  0  0  0  0  0  0  0  0  0  0
   58.3552   -3.3318  -15.2016 C   0  0  0  0  0  0  0  0  0  0  0  0
   57.0642   -3.5500  -14.7919 C   0  0  0  0  0  0  0  0  0  0  0  0
   55.7746   -3.3559  -15.9507 Cl  0  0  0  0  0  0  0  0  0  0  0  0
   56.7892   -3.9198  -13.4730 C   0  0  0  0  0  0  0  0  0  0  0  0
  2  1  1  0  0  0
  2 15  1  0  0  0
 15 16  2  0  0  0
 16 17  1  0  0  0
 17 22  1  0  0  0
 22 23  2  0  0  0
 23 24  1  0  0  0
 24 25  2  0  0  0
 25 26  1  0  0  0
 26 27  1  0  0  0
 26 28  2  0  0  0
 17 18  2  0  0  0
 18 19  1  0  0  0
 19 20  2  0  0  0
 20 21  1  0  0  0
  2  3  1  0  0  0
  3  4  1  0  0  0
  4  5  2  0  0  0
  5  6  1  0  0  0
  6  7  2  0  0  0
  7  8  1  0  0  0
  8  9  2  0  0  0
  9 10  1  0  0  0
 10 11  2  0  0  0
 10 12  1  0  0  0
 12  2  1  0  0  0
 20 15  1  0  0  0
  9  4  1  0  0  0
 28 22  1  0  0  0
 11 13  1  0  0  0
 12 14  1  0  0  0
M  END
> <minimizedAffinity>
-10.81620

> <CNNscore>
0.5751214623

> <CNNaffinity>
6.8887367249

> <CNN_VS>
3.9618604183

> <CNNaffinity_variance>
0.0313216448

$$$$
[H]N=C1c2c([H])nc([H])nc2C([H])([H])[C@](c2c([H])c(-c3c([H])nc([H])c(Cl)c3[H])c([H])c([H])c2F)(C([H])([H])[H])N1[H]


 28 31  0  0  0  0  0  0  0  0999 V2000
   52.6217   -6.0876   -7.9763 C   0  0  0  0  0  0  0  0  0  0  0  0
   53.4821   -5.0912   -7.2603 C   0  0  0  0  0  0  0  0  0  0  0  0
   52.8688   -3.7269   -7.4606 C   0  0  0  0  0  0  0  0  0  0  0  0
   51.5063   -3.6721   -6.8972 C   0  0  0  0  0  0  0  0  0  0  0  0
   50.5885   -2.8526   -7.4484 N   0  0  0  0  0  0  0  0  0  0  0  0
   49.3367   -2.7526   -6.9681 C   0  0  0  0  0  0  0  0  0  0  0  0
   49.0231   -3.5084   -5.9022 N   0  0  0  0  0  0  0  0  0  0  0  0
   49.9136   -4.3483   -5.3139 C   0  0  0  0  0  0  0  0  0  0  0  0
   51.1841   -4.4441   -5.8087 C   0  0  0  0  0  0  0  0  0  0  0  0
   52.1755   -5.3592   -5.2039 C   0  0  0  0  0  0  0  0  0  0  0  0
   51.9057   -6.0766   -4.1965 N   0  0  0  0  0  0  0  0  0  0  0  0
   53.4507   -5.3708   -5.8301 N   0  0  0  0  0  0  0  0  0  0  0  0
   51.0457   -6.1606   -3.6568 H   0  0  0  0  0  0  0  0  0  0  0  0
   54.2934   -5.5751   -5.2528 H   0  0  0  0  0  0  0  0  0  0  0  0
   54.8761   -5.0751   -7.7738 C   0  0  0  0  0  0  0  0  0  0  0  0
   55.1854   -4.7193   -9.0679 C   0  0  0  0  0  0  0  0  0  0  0  0
   56.4995   -4.7156   -9.5284 C   0  0  0  0  0  0  0  0  0  0  0  0
   57.4966   -5.0815   -8.6449 C   0  0  0  0  0  0  0  0  0  0  0  0
   57.2214   -5.4478   -7.3265 C   0  0  0  0  0  0  0  0  0  0  0  0
   55.9003   -5.4333   -6.9252 C   0  0  0  0  0  0  0  0  0  0  0  0
   55.5844   -5.7840   -5.6439 F   0  0  0  0  0  0  0  0  0  0  0  0
   56.8521   -4.3449  -10.8924 C   0  0  0  0  0  0  0  0  0  0  0  0
   55.8587   -4.0633  -11.8032 C   0  0  0  0  0  0  0  0  0  0  0  0
   56.1543   -3.7176  -13.0826 N   0  0  0  0  0  0  0  0  0  0  0  0
   57.4236   -3.6305  -13.5309 C   0  0  0  0  0  0  0  0  0  0  0  0
   58.4389   -3.9044  -12.6500 C   0  0  0  0  0  0  0  0  0  0  0  0
   60.0867   -3.7974  -13.2130 Cl  0  0  0  0  0  0  0  0  0  0  0  0
   58.1577   -4.2621  -11.3291 C   0  0  0  0  0  0  0  0  0  0  0  0
  2  1  1  0  0  0
  2 15  1  0  0  0
 15 16  2  0  0  0
 16 17  1  0  0  0
 17 22  1  0  0  0
 22 23  2  0  0  0
 23 24  1  0  0  0
 24 25  2  0  0  0
 25 26  1  0  0  0
 26 27  1  0  0  0
 26 28  2  0  0  0
 17 18  2  0  0  0
 18 19  1  0  0  0
 19 20  2  0  0  0
 20 21  1  0  0  0
  2  3  1  0  0  0
  3  4  1  0  0  0
  4  5  2  0  0  0
  5  6  1  0  0  0
  6  7  2  0  0  0
  7  8  1  0  0  0
  8  9  2  0  0  0
  9 10  1  0  0  0
 10 11  2  0  0  0
 10 12  1  0  0  0
 12  2  1  0  0  0
 20 15  1  0  0  0
  9  4  1  0  0  0
 28 22  1  0  0  0
 11 13  1  0  0  0
 12 14  1  0  0  0
M  END
> <minimizedAffinity>
-9.40355

> <CNNscore>
0.5200153589

> <CNNaffinity>
7.2079353333

> <CNN_VS>
3.7482371330

> <CNNaffinity_variance>
0.3702428937

$$$$
[H]N=C1c2c([H])nc([H])nc2C([H])([H])[C@](c2c([H])c(-c3c([H])nc([H])c(Cl)c3[H])c([H])c([H])c2F)(C([H])([H])[H])N1[H]


 28 31  0  0  0  0  0  0  0  0999 V2000
   57.0862   -5.6937  -12.5718 C   0  0  0  0  0  0  0  0  0  0  0  0
   56.9905   -4.3245  -11.9704 C   0  0  0  0  0  0  0  0  0  0  0  0
   58.3658   -3.7049  -12.0177 C   0  0  0  0  0  0  0  0  0  0  0  0
   58.8425   -3.5822  -13.4086 C   0  0  0  0  0  0  0  0  0  0  0  0
   60.1640   -3.6440  -13.6692 N   0  0  0  0  0  0  0  0  0  0  0  0
   60.6549   -3.5249  -14.9151 C   0  0  0  0  0  0  0  0  0  0  0  0
   59.7717   -3.3391  -15.9107 N   0  0  0  0  0  0  0  0  0  0  0  0
   58.4323   -3.2707  -15.6967 C   0  0  0  0  0  0  0  0  0  0  0  0
   57.9415   -3.3929  -14.4269 C   0  0  0  0  0  0  0  0  0  0  0  0
   56.4887   -3.3394  -14.1579 C   0  0  0  0  0  0  0  0  0  0  0  0
   55.6378   -3.1596  -15.0778 N   0  0  0  0  0  0  0  0  0  0  0  0
   56.1182   -3.4983  -12.7956 N   0  0  0  0  0  0  0  0  0  0  0  0
   55.7664   -3.0295  -16.0800 H   0  0  0  0  0  0  0  0  0  0  0  0
   55.2554   -3.0276  -12.4501 H   0  0  0  0  0  0  0  0  0  0  0  0
   56.5230   -4.3573  -10.5606 C   0  0  0  0  0  0  0  0  0  0  0  0
   55.2649   -3.9396  -10.1869 C   0  0  0  0  0  0  0  0  0  0  0  0
   54.8499   -3.9756   -8.8581 C   0  0  0  0  0  0  0  0  0  0  0  0
   55.7414   -4.4462   -7.9135 C   0  0  0  0  0  0  0  0  0  0  0  0
   57.0240   -4.8780   -8.2547 C   0  0  0  0  0  0  0  0  0  0  0  0
   57.3811   -4.8196   -9.5872 C   0  0  0  0  0  0  0  0  0  0  0  0
   58.6261   -5.2321   -9.9670 F   0  0  0  0  0  0  0  0  0  0  0  0
   53.5256   -3.5383   -8.4375 C   0  0  0  0  0  0  0  0  0  0  0  0
   52.9720   -2.4048   -8.9895 C   0  0  0  0  0  0  0  0  0  0  0  0
   51.7411   -1.9694   -8.6168 N   0  0  0  0  0  0  0  0  0  0  0  0
   50.9970   -2.6143   -7.6947 C   0  0  0  0  0  0  0  0  0  0  0  0
   51.5176   -3.7479   -7.1239 C   0  0  0  0  0  0  0  0  0  0  0  0
   50.5691   -4.5943   -5.9291 Cl  0  0  0  0  0  0  0  0  0  0  0  0
   52.7821   -4.2138   -7.4925 C   0  0  0  0  0  0  0  0  0  0  0  0
  2  1  1  0  0  0
  2 15  1  0  0  0
 15 16  2  0  0  0
 16 17  1  0  0  0
 17 22  1  0  0  0
 22 23  2  0  0  0
 23 24  1  0  0  0
 24 25  2  0  0  0
 25 26  1  0  0  0
 26 27  1  0  0  0
 26 28  2  0  0  0
 17 18  2  0  0  0
 18 19  1  0  0  0
 19 20  2  0  0  0
 20 21  1  0  0  0
  2  3  1  0  0  0
  3  4  1  0  0  0
  4  5  2  0  0  0
  5  6  1  0  0  0
  6  7  2  0  0  0
  7  8  1  0  0  0
  8  9  2  0  0  0
  9 10  1  0  0  0
 10 11  2  0  0  0
 10 12  1  0  0  0
 12  2  1  0  0  0
 20 15  1  0  0  0
  9  4  1  0  0  0
 28 22  1  0  0  0
 11 13  1  0  0  0
 12 14  1  0  0  0
M  END
> <minimizedAffinity>
-8.41267

> <CNNscore>
0.4218609631

> <CNNaffinity>
6.5310235023

> <CNN_VS>
2.7551839352

> <CNNaffinity_variance>
0.1923531294

$$$$
[H]N=C1c2c([H])nc([H])nc2C([H])([H])[C@](c2c([H])c(-c3c([H])nc([H])c(Cl)c3[H])c([H])c([H])c2F)(C([H])([H])[H])N1[H]


 28 31  0  0  0  0  0  0  0  0999 V2000
   52.9127   -5.0549   -9.8307 C   0  0  0  0  0  0  0  0  0  0  0  0
   54.0004   -4.3779   -9.0534 C   0  0  0  0  0  0  0  0  0  0  0  0
   53.6056   -2.9323   -8.8745 C   0  0  0  0  0  0  0  0  0  0  0  0
   52.3411   -2.8191   -8.1226 C   0  0  0  0  0  0  0  0  0  0  0  0
   51.5185   -1.7760   -8.3531 N   0  0  0  0  0  0  0  0  0  0  0  0
   50.3611   -1.6156   -7.6881 C   0  0  0  0  0  0  0  0  0  0  0  0
   50.0439   -2.5440   -6.7698 N   0  0  0  0  0  0  0  0  0  0  0  0
   50.8404   -3.6113   -6.5036 C   0  0  0  0  0  0  0  0  0  0  0  0
   52.0153   -3.7670   -7.1845 C   0  0  0  0  0  0  0  0  0  0  0  0
   52.8999   -4.9246   -6.9327 C   0  0  0  0  0  0  0  0  0  0  0  0
   52.6257   -5.8087   -6.0692 N   0  0  0  0  0  0  0  0  0  0  0  0
   54.0791   -4.9697   -7.7237 N   0  0  0  0  0  0  0  0  0  0  0  0
   51.8279   -5.8934   -5.4412 H   0  0  0  0  0  0  0  0  0  0  0  0
   54.9338   -5.4155   -7.3287 H   0  0  0  0  0  0  0  0  0  0  0  0
   55.3130   -4.4385   -9.7467 C   0  0  0  0  0  0  0  0  0  0  0  0
   55.4359   -4.3181  -11.1133 C   0  0  0  0  0  0  0  0  0  0  0  0
   56.6768   -4.3823  -11.7418 C   0  0  0  0  0  0  0  0  0  0  0  0
   57.7942   -4.5717  -10.9517 C   0  0  0  0  0  0  0  0  0  0  0  0
   57.7086   -4.6977   -9.5643 C   0  0  0  0  0  0  0  0  0  0  0  0
   56.4524   -4.6264   -8.9957 C   0  0  0  0  0  0  0  0  0  0  0  0
   56.3210   -4.7441   -7.6417 F   0  0  0  0  0  0  0  0  0  0  0  0
   56.8328   -4.2593  -13.1849 C   0  0  0  0  0  0  0  0  0  0  0  0
   55.9826   -4.9420  -14.0256 C   0  0  0  0  0  0  0  0  0  0  0  0
   56.1036   -4.8506  -15.3749 N   0  0  0  0  0  0  0  0  0  0  0  0
   57.0525   -4.0942  -15.9640 C   0  0  0  0  0  0  0  0  0  0  0  0
   57.9172   -3.3998  -15.1564 C   0  0  0  0  0  0  0  0  0  0  0  0
   59.1511   -2.4170  -15.9014 Cl  0  0  0  0  0  0  0  0  0  0  0  0
   57.8109   -3.4794  -13.7657 C   0  0  0  0  0  0  0  0  0  0  0  0
  2  1  1  0  0  0
  2 15  1  0  0  0
 15 16  2  0  0  0
 16 17  1  0  0  0
 17 22  1  0  0  0
 22 23  2  0  0  0
 23 24  1  0  0  0
 24 25  2  0  0  0
 25 26  1  0  0  0
 26 27  1  0  0  0
 26 28  2  0  0  0
 17 18  2  0  0  0
 18 19  1  0  0  0
 19 20  2  0  0  0
 20 21  1  0  0  0
  2  3  1  0  0  0
  3  4  1  0  0  0
  4  5  2  0  0  0
  5  6  1  0  0  0
  6  7  2  0  0  0
  7  8  1  0  0  0
  8  9  2  0  0  0
  9 10  1  0  0  0
 10 11  2  0  0  0
 10 12  1  0  0  0
 12  2  1  0  0  0
 20 15  1  0  0  0
  9  4  1  0  0  0
 28 22  1  0  0  0
 11 13  1  0  0  0
 12 14  1  0  0  0
M  END
> <minimizedAffinity>
-7.67886

> <CNNscore>
0.3646621704

> <CNNaffinity>
6.6732778549

> <CNN_VS>
2.4334919453

> <CNNaffinity_variance>
0.0691091418

$$$$
[H]N=C1c2c([H])nc([H])nc2C([H])([H])[C@](c2c([H])c(-c3c([H])nc([H])c(Cl)c3[H])c([H])c([H])c2F)(C([H])([H])[H])N1[H]


 28 31  0  0  0  0  0  0  0  0999 V2000
   50.2639   -5.4409   -7.0218 C   0  0  0  0  0  0  0  0  0  0  0  0
   51.1790   -4.3945   -6.4618 C   0  0  0  0  0  0  0  0  0  0  0  0
   50.3285   -3.2277   -6.0230 C   0  0  0  0  0  0  0  0  0  0  0  0
   49.3726   -3.6350   -4.9753 C   0  0  0  0  0  0  0  0  0  0  0  0
   48.1858   -3.0035   -4.8726 N   0  0  0  0  0  0  0  0  0  0  0  0
   47.2830   -3.3241   -3.9293 C   0  0  0  0  0  0  0  0  0  0  0  0
   47.6060   -4.3112   -3.0767 N   0  0  0  0  0  0  0  0  0  0  0  0
   48.7887   -4.9757   -3.1417 C   0  0  0  0  0  0  0  0  0  0  0  0
   49.7009   -4.6437   -4.1039 C   0  0  0  0  0  0  0  0  0  0  0  0
   50.9919   -5.3557   -4.2149 C   0  0  0  0  0  0  0  0  0  0  0  0
   51.3212   -6.2846   -3.4204 N   0  0  0  0  0  0  0  0  0  0  0  0
   51.8358   -4.9196   -5.2712 N   0  0  0  0  0  0  0  0  0  0  0  0
   50.8194   -6.6864   -2.6300 H   0  0  0  0  0  0  0  0  0  0  0  0
   52.8684   -4.9921   -5.1535 H   0  0  0  0  0  0  0  0  0  0  0  0
   52.1733   -3.9204   -7.4587 C   0  0  0  0  0  0  0  0  0  0  0  0
   53.4551   -4.4203   -7.5228 C   0  0  0  0  0  0  0  0  0  0  0  0
   54.3716   -3.9575   -8.4635 C   0  0  0  0  0  0  0  0  0  0  0  0
   53.9585   -2.9735   -9.3408 C   0  0  0  0  0  0  0  0  0  0  0  0
   52.6679   -2.4432   -9.3060 C   0  0  0  0  0  0  0  0  0  0  0  0
   51.8019   -2.9399   -8.3521 C   0  0  0  0  0  0  0  0  0  0  0  0
   50.5291   -2.4507   -8.2815 F   0  0  0  0  0  0  0  0  0  0  0  0
   55.7328   -4.4689   -8.5505 C   0  0  0  0  0  0  0  0  0  0  0  0
   56.3408   -4.9900   -7.4304 C   0  0  0  0  0  0  0  0  0  0  0  0
   57.6093   -5.4719   -7.4779 N   0  0  0  0  0  0  0  0  0  0  0  0
   58.3397   -5.4687   -8.6121 C   0  0  0  0  0  0  0  0  0  0  0  0
   57.7651   -4.9567   -9.7477 C   0  0  0  0  0  0  0  0  0  0  0  0
   58.6955   -4.9440  -11.2234 Cl  0  0  0  0  0  0  0  0  0  0  0  0
   56.4613   -4.4556   -9.7216 C   0  0  0  0  0  0  0  0  0  0  0  0
  2  1  1  0  0  0
  2 15  1  0  0  0
 15 16  2  0  0  0
 16 17  1  0  0  0
 17 22  1  0  0  0
 22 23  2  0  0  0
 23 24  1  0  0  0
 24 25  2  0  0  0
 25 26  1  0  0  0
 26 27  1  0  0  0
 26 28  2  0  0  0
 17 18  2  0  0  0
 18 19  1  0  0  0
 19 20  2  0  0  0
 20 21  1  0  0  0
  2  3  1  0  0  0
  3  4  1  0  0  0
  4  5  2  0  0  0
  5  6  1  0  0  0
  6  7  2  0  0  0
  7  8  1  0  0  0
  8  9  2  0  0  0
  9 10  1  0  0  0
 10 11  2  0  0  0
 10 12  1  0  0  0
 12  2  1  0  0  0
 20 15  1  0  0  0
  9  4  1  0  0  0
 28 22  1  0  0  0
 11 13  1  0  0  0
 12 14  1  0  0  0
M  END
> <minimizedAffinity>
-9.85766

> <CNNscore>
0.3576017916

> <CNNaffinity>
6.8892288208

> <CNN_VS>
2.4636006355

> <CNNaffinity_variance>
0.2073730528

$$$$
[H]N=C1c2c([H])nc([H])nc2C([H])([H])[C@](c2c([H])c(-c3c([H])nc([H])c(Cl)c3[H])c([H])c([H])c2F)(C([H])([H])[H])N1[H]


 28 31  0  0  0  0  0  0  0  0999 V2000
   55.5020   -3.2343   -7.6112 C   0  0  0  0  0  0  0  0  0  0  0  0
   55.1160   -4.1313   -8.7479 C   0  0  0  0  0  0  0  0  0  0  0  0
   54.5273   -5.3904   -8.1600 C   0  0  0  0  0  0  0  0  0  0  0  0
   53.3239   -5.0882   -7.3615 C   0  0  0  0  0  0  0  0  0  0  0  0
   53.0054   -5.8718   -6.3115 N   0  0  0  0  0  0  0  0  0  0  0  0
   51.9141   -5.6512   -5.5578 C   0  0  0  0  0  0  0  0  0  0  0  0
   51.1366   -4.6067   -5.8896 N   0  0  0  0  0  0  0  0  0  0  0  0
   51.4171   -3.7899   -6.9378 C   0  0  0  0  0  0  0  0  0  0  0  0
   52.5288   -4.0212   -7.6987 C   0  0  0  0  0  0  0  0  0  0  0  0
   52.8745   -3.1439   -8.8376 C   0  0  0  0  0  0  0  0  0  0  0  0
   52.1550   -2.1578   -9.1730 N   0  0  0  0  0  0  0  0  0  0  0  0
   54.0660   -3.4901   -9.5294 N   0  0  0  0  0  0  0  0  0  0  0  0
   51.2873   -1.8065   -8.7711 H   0  0  0  0  0  0  0  0  0  0  0  0
   54.1385   -3.2751  -10.5462 H   0  0  0  0  0  0  0  0  0  0  0  0
   56.2764   -4.4931   -9.6022 C   0  0  0  0  0  0  0  0  0  0  0  0
   57.3562   -5.2023   -9.1245 C   0  0  0  0  0  0  0  0  0  0  0  0
   58.4350   -5.5265   -9.9432 C   0  0  0  0  0  0  0  0  0  0  0  0
   58.3947   -5.1146  -11.2613 C   0  0  0  0  0  0  0  0  0  0  0  0
   57.3176   -4.3946  -11.7806 C   0  0  0  0  0  0  0  0  0  0  0  0
   56.2761   -4.1014  -10.9229 C   0  0  0  0  0  0  0  0  0  0  0  0
   55.2013   -3.3993  -11.3878 F   0  0  0  0  0  0  0  0  0  0  0  0
   59.5887   -6.2741   -9.4616 C   0  0  0  0  0  0  0  0  0  0  0  0
   60.2529   -5.8538   -8.3312 C   0  0  0  0  0  0  0  0  0  0  0  0
   61.3332   -6.5269   -7.8584 N   0  0  0  0  0  0  0  0  0  0  0  0
   61.8133   -7.6341   -8.4612 C   0  0  0  0  0  0  0  0  0  0  0  0
   61.1756   -8.0814   -9.5905 C   0  0  0  0  0  0  0  0  0  0  0  0
   61.7834   -9.5116  -10.3835 Cl  0  0  0  0  0  0  0  0  0  0  0  0
   60.0624   -7.4043  -10.0944 C   0  0  0  0  0  0  0  0  0  0  0  0
  2  1  1  0  0  0
  2 15  1  0  0  0
 15 16  2  0  0  0
 16 17  1  0  0  0
 17 22  1  0  0  0
 22 23  2  0  0  0
 23 24  1  0  0  0
 24 25  2  0  0  0
 25 26  1  0  0  0
 26 27  1  0  0  0
 26 28  2  0  0  0
 17 18  2  0  0  0
 18 19  1  0  0  0
 19 20  2  0  0  0
 20 21  1  0  0  0
  2  3  1  0  0  0
  3  4  1  0  0  0
  4  5  2  0  0  0
  5  6  1  0  0  0
  6  7  2  0  0  0
  7  8  1  0  0  0
  8  9  2  0  0  0
  9 10  1  0  0  0
 10 11  2  0  0  0
 10 12  1  0  0  0
 12  2  1  0  0  0
 20 15  1  0  0  0
  9  4  1  0  0  0
 28 22  1  0  0  0
 11 13  1  0  0  0
 12 14  1  0  0  0
M  END
> <minimizedAffinity>
-8.90031

> <CNNscore>
0.2990440428

> <CNNaffinity>
6.6062965393

> <CNN_VS>
1.9755736589

> <CNNaffinity_variance>
0.2150557786

$$$$
[H]N=C1c2c([H])nc([H])nc2C([H])([H])[C@](c2c([H])c(-c3c([H])nc([H])c(Cl)c3[H])c([H])c([H])c2F)(C([H])([H])[H])N1[H]


 28 31  0  0  0  0  0  0  0  0999 V2000
   52.8153   -6.1024   -8.3622 C   0  0  0  0  0  0  0  0  0  0  0  0
   53.7050   -5.0035   -7.8656 C   0  0  0  0  0  0  0  0  0  0  0  0
   52.8638   -3.7582   -7.7279 C   0  0  0  0  0  0  0  0  0  0  0  0
   51.7718   -3.9629   -6.7569 C   0  0  0  0  0  0  0  0  0  0  0  0
   50.6120   -3.2914   -6.9053 N   0  0  0  0  0  0  0  0  0  0  0  0
   49.5892   -3.4290   -6.0437 C   0  0  0  0  0  0  0  0  0  0  0  0
   49.7617   -4.2717   -5.0113 N   0  0  0  0  0  0  0  0  0  0  0  0
   50.9113   -4.9694   -4.8211 C   0  0  0  0  0  0  0  0  0  0  0  0
   51.9463   -4.8239   -5.7020 C   0  0  0  0  0  0  0  0  0  0  0  0
   53.2066   -5.5789   -5.5358 C   0  0  0  0  0  0  0  0  0  0  0  0
   53.3949   -6.3738   -4.5687 N   0  0  0  0  0  0  0  0  0  0  0  0
   54.1899   -5.3442   -6.5339 N   0  0  0  0  0  0  0  0  0  0  0  0
   52.7842   -6.6273   -3.7937 H   0  0  0  0  0  0  0  0  0  0  0  0
   55.1965   -5.4242   -6.2778 H   0  0  0  0  0  0  0  0  0  0  0  0
   54.8322   -4.7257   -8.7927 C   0  0  0  0  0  0  0  0  0  0  0  0
   56.0967   -5.2349   -8.5958 C   0  0  0  0  0  0  0  0  0  0  0  0
   57.1392   -4.9575   -9.4763 C   0  0  0  0  0  0  0  0  0  0  0  0
   56.8705   -4.1499  -10.5645 C   0  0  0  0  0  0  0  0  0  0  0  0
   55.6019   -3.6161  -10.7966 C   0  0  0  0  0  0  0  0  0  0  0  0
   54.6068   -3.9247   -9.8904 C   0  0  0  0  0  0  0  0  0  0  0  0
   53.3501   -3.4248  -10.0778 F   0  0  0  0  0  0  0  0  0  0  0  0
   58.4851   -5.4826   -9.2893 C   0  0  0  0  0  0  0  0  0  0  0  0
   58.8940   -5.8870   -8.0383 C   0  0  0  0  0  0  0  0  0  0  0  0
   60.1426   -6.3781   -7.8306 N   0  0  0  0  0  0  0  0  0  0  0  0
   61.0452   -6.4975   -8.8260 C   0  0  0  0  0  0  0  0  0  0  0  0
   60.6716   -6.1040  -10.0859 C   0  0  0  0  0  0  0  0  0  0  0  0
   61.8265   -6.2507  -11.3852 Cl  0  0  0  0  0  0  0  0  0  0  0  0
   59.3919   -5.5958  -10.3224 C   0  0  0  0  0  0  0  0  0  0  0  0
  2  1  1  0  0  0
  2 15  1  0  0  0
 15 16  2  0  0  0
 16 17  1  0  0  0
 17 22  1  0  0  0
 22 23  2  0  0  0
 23 24  1  0  0  0
 24 25  2  0  0  0
 25 26  1  0  0  0
 26 27  1  0  0  0
 26 28  2  0  0  0
 17 18  2  0  0  0
 18 19  1  0  0  0
 19 20  2  0  0  0
 20 21  1  0  0  0
  2  3  1  0  0  0
  3  4  1  0  0  0
  4  5  2  0  0  0
  5  6  1  0  0  0
  6  7  2  0  0  0
  7  8  1  0  0  0
  8  9  2  0  0  0
  9 10  1  0  0  0
 10 11  2  0  0  0
 10 12  1  0  0  0
 12  2  1  0  0  0
 20 15  1  0  0  0
  9  4  1  0  0  0
 28 22  1  0  0  0
 11 13  1  0  0  0
 12 14  1  0  0  0
M  END
> <minimizedAffinity>
-7.13586

> <CNNscore>
0.2831247449

> <CNNaffinity>
6.6713881493

> <CNN_VS>
1.8888350725

> <CNNaffinity_variance>
0.2279102802

$$$$
[H]N=C1c2c([H])nc([H])nc2C([H])([H])[C@](c2c([H])c(-c3c([H])nc([H])c(Cl)c3[H])c([H])c([H])c2F)(C([H])([H])[H])N1[H]


 28 31  0  0  0  0  0  0  0  0999 V2000
   55.8053   -3.5659   -7.1937 C   0  0  0  0  0  0  0  0  0  0  0  0
   55.5116   -4.2483   -8.4951 C   0  0  0  0  0  0  0  0  0  0  0  0
   54.8294   -5.5579   -8.1833 C   0  0  0  0  0  0  0  0  0  0  0  0
   53.5600   -5.3346   -7.4650 C   0  0  0  0  0  0  0  0  0  0  0  0
   53.1132   -6.2626   -6.5949 N   0  0  0  0  0  0  0  0  0  0  0  0
   51.9575   -6.1176   -5.9234 C   0  0  0  0  0  0  0  0  0  0  0  0
   51.2487   -4.9988   -6.1505 N   0  0  0  0  0  0  0  0  0  0  0  0
   51.6586   -4.0366   -7.0169 C   0  0  0  0  0  0  0  0  0  0  0  0
   52.8350   -4.1919   -7.6954 C   0  0  0  0  0  0  0  0  0  0  0  0
   53.3207   -3.1583   -8.6345 C   0  0  0  0  0  0  0  0  0  0  0  0
   52.6683   -2.0992   -8.8693 N   0  0  0  0  0  0  0  0  0  0  0  0
   54.5660   -3.4417   -9.2566 N   0  0  0  0  0  0  0  0  0  0  0  0
   51.7747   -1.7785   -8.4999 H   0  0  0  0  0  0  0  0  0  0  0  0
   54.7483   -3.0683  -10.2119 H   0  0  0  0  0  0  0  0  0  0  0  0
   56.7421   -4.5193   -9.2821 C   0  0  0  0  0  0  0  0  0  0  0  0
   56.8957   -4.1011  -10.5854 C   0  0  0  0  0  0  0  0  0  0  0  0
   58.0569   -4.3704  -11.3052 C   0  0  0  0  0  0  0  0  0  0  0  0
   59.0626   -5.0753  -10.6723 C   0  0  0  0  0  0  0  0  0  0  0  0
   58.9428   -5.5149   -9.3530 C   0  0  0  0  0  0  0  0  0  0  0  0
   57.7692   -5.2194   -8.6884 C   0  0  0  0  0  0  0  0  0  0  0  0
   57.6084   -5.6295   -7.3959 F   0  0  0  0  0  0  0  0  0  0  0  0
   58.2428   -3.9404  -12.6845 C   0  0  0  0  0  0  0  0  0  0  0  0
   57.1455   -3.7293  -13.4890 C   0  0  0  0  0  0  0  0  0  0  0  0
   57.2852   -3.3310  -14.7795 N   0  0  0  0  0  0  0  0  0  0  0  0
   58.4930   -3.1210  -15.3425 C   0  0  0  0  0  0  0  0  0  0  0  0
   59.6085   -3.3218  -14.5696 C   0  0  0  0  0  0  0  0  0  0  0  0
   61.1787   -3.0556  -15.2817 Cl  0  0  0  0  0  0  0  0  0  0  0  0
   59.4880   -3.7316  -13.2394 C   0  0  0  0  0  0  0  0  0  0  0  0
  2  1  1  0  0  0
  2 15  1  0  0  0
 15 16  2  0  0  0
 16 17  1  0  0  0
 17 22  1  0  0  0
 22 23  2  0  0  0
 23 24  1  0  0  0
 24 25  2  0  0  0
 25 26  1  0  0  0
 26 27  1  0  0  0
 26 28  2  0  0  0
 17 18  2  0  0  0
 18 19  1  0  0  0
 19 20  2  0  0  0
 20 21  1  0  0  0
  2  3  1  0  0  0
  3  4  1  0  0  0
  4  5  2  0  0  0
  5  6  1  0  0  0
  6  7  2  0  0  0
  7  8  1  0  0  0
  8  9  2  0  0  0
  9 10  1  0  0  0
 10 11  2  0  0  0
 10 12  1  0  0  0
 12  2  1  0  0  0
 20 15  1  0  0  0
  9  4  1  0  0  0
 28 22  1  0  0  0
 11 13  1  0  0  0
 12 14  1  0  0  0
M  END
> <minimizedAffinity>
-9.26666

> <CNNscore>
0.2628136277

> <CNNaffinity>
6.3919959068

> <CNN_VS>
1.6799036264

> <CNNaffinity_variance>
0.0990223438

$$$$
[H]N=C1c2c([H])nc([H])nc2C([H])([H])[C@](c2c([H])c(-c3c([H])nc([H])c(Cl)c3[H])c([H])c([H])c2F)(C([H])([H])[H])N1[H]


 28 31  0  0  0  0  0  0  0  0999 V2000
   51.6748   -6.3780   -6.9218 C   0  0  0  0  0  0  0  0  0  0  0  0
   52.4415   -5.1454   -6.5496 C   0  0  0  0  0  0  0  0  0  0  0  0
   51.4887   -4.2042   -5.8541 C   0  0  0  0  0  0  0  0  0  0  0  0
   50.9440   -4.8155   -4.6266 C   0  0  0  0  0  0  0  0  0  0  0  0
   49.7105   -4.4749   -4.2019 N   0  0  0  0  0  0  0  0  0  0  0  0
   49.1701   -4.9901   -3.0838 C   0  0  0  0  0  0  0  0  0  0  0  0
   49.9108   -5.8710   -2.3902 N   0  0  0  0  0  0  0  0  0  0  0  0
   51.1573   -6.2445   -2.7791 C   0  0  0  0  0  0  0  0  0  0  0  0
   51.6992   -5.7161   -3.9172 C   0  0  0  0  0  0  0  0  0  0  0  0
   53.0468   -6.1111   -4.3797 C   0  0  0  0  0  0  0  0  0  0  0  0
   53.7656   -6.9342   -3.7408 N   0  0  0  0  0  0  0  0  0  0  0  0
   53.4774   -5.4977   -5.5866 N   0  0  0  0  0  0  0  0  0  0  0  0
   53.5825   -7.4367   -2.8737 H   0  0  0  0  0  0  0  0  0  0  0  0
   54.4953   -5.3289   -5.7305 H   0  0  0  0  0  0  0  0  0  0  0  0
   53.0201   -4.4599   -7.7339 C   0  0  0  0  0  0  0  0  0  0  0  0
   54.2675   -4.7656   -8.2314 C   0  0  0  0  0  0  0  0  0  0  0  0
   54.7912   -4.1066   -9.3408 C   0  0  0  0  0  0  0  0  0  0  0  0
   54.0196   -3.1277   -9.9367 C   0  0  0  0  0  0  0  0  0  0  0  0
   52.7514   -2.7911   -9.4609 C   0  0  0  0  0  0  0  0  0  0  0  0
   52.2834   -3.4773   -8.3579 C   0  0  0  0  0  0  0  0  0  0  0  0
   51.0476   -3.1815   -7.8582 F   0  0  0  0  0  0  0  0  0  0  0  0
   56.1079   -4.4105   -9.8848 C   0  0  0  0  0  0  0  0  0  0  0  0
   56.3744   -4.1593  -11.2120 C   0  0  0  0  0  0  0  0  0  0  0  0
   57.5905   -4.4339  -11.7500 N   0  0  0  0  0  0  0  0  0  0  0  0
   58.5971   -4.9626  -11.0241 C   0  0  0  0  0  0  0  0  0  0  0  0
   58.3666   -5.2257   -9.6976 C   0  0  0  0  0  0  0  0  0  0  0  0
   59.6572   -5.9102   -8.7438 Cl  0  0  0  0  0  0  0  0  0  0  0  0
   57.1230   -4.9510   -9.1234 C   0  0  0  0  0  0  0  0  0  0  0  0
  2  1  1  0  0  0
  2 15  1  0  0  0
 15 16  2  0  0  0
 16 17  1  0  0  0
 17 22  1  0  0  0
 22 23  2  0  0  0
 23 24  1  0  0  0
 24 25  2  0  0  0
 25 26  1  0  0  0
 26 27  1  0  0  0
 26 28  2  0  0  0
 17 18  2  0  0  0
 18 19  1  0  0  0
 19 20  2  0  0  0
 20 21  1  0  0  0
  2  3  1  0  0  0
  3  4  1  0  0  0
  4  5  2  0  0  0
  5  6  1  0  0  0
  6  7  2  0  0  0
  7  8  1  0  0  0
  8  9  2  0  0  0
  9 10  1  0  0  0
 10 11  2  0  0  0
 10 12  1  0  0  0
 12  2  1  0  0  0
 20 15  1  0  0  0
  9  4  1  0  0  0
 28 22  1  0  0  0
 11 13  1  0  0  0
 12 14  1  0  0  0
M  END
> <minimizedAffinity>
-9.79034

> <CNNscore>
0.2552953362

> <CNNaffinity>
6.7955312729

> <CNN_VS>
1.7348674536

> <CNNaffinity_variance>
0.0542619713

$$$$
[H]/C(C(=O)/C([H])=C(\[H])c1c([H])c([H])c(F)c([H])c1[H])=C(/[H])c1c([H])c([H])c(F)c([H])c1[H]


 20 21  0  0  0  0  0  0  0  0999 V2000
   52.7214   -2.8538   -9.8976 O   0  0  0  0  0  0  0  0  0  0  0  0
   53.1858   -3.5520   -8.8713 C   0  0  0  0  0  0  0  0  0  0  0  0
   54.5109   -3.9950   -9.0692 C   0  0  0  0  0  0  0  0  0  0  0  0
   55.3274   -3.9378  -10.0759 C   0  0  0  0  0  0  0  0  0  0  0  0
   56.7010   -4.4824  -10.0522 C   0  0  0  0  0  0  0  0  0  0  0  0
   57.1946   -4.9382   -8.8224 C   0  0  0  0  0  0  0  0  0  0  0  0
   58.4540   -5.4622   -8.6854 C   0  0  0  0  0  0  0  0  0  0  0  0
   59.2592   -5.5451   -9.7824 C   0  0  0  0  0  0  0  0  0  0  0  0
   60.5164   -6.0665   -9.6536 F   0  0  0  0  0  0  0  0  0  0  0  0
   58.7831   -5.0992  -10.9986 C   0  0  0  0  0  0  0  0  0  0  0  0
   57.5026   -4.5681  -11.1299 C   0  0  0  0  0  0  0  0  0  0  0  0
   52.2566   -3.6899   -7.8276 C   0  0  0  0  0  0  0  0  0  0  0  0
   51.2078   -2.9841   -7.5421 C   0  0  0  0  0  0  0  0  0  0  0  0
   50.3603   -3.3085   -6.3844 C   0  0  0  0  0  0  0  0  0  0  0  0
   49.3144   -2.5742   -5.9439 C   0  0  0  0  0  0  0  0  0  0  0  0
   48.5367   -2.9274   -4.8331 C   0  0  0  0  0  0  0  0  0  0  0  0
   48.8352   -4.0733   -4.1433 C   0  0  0  0  0  0  0  0  0  0  0  0
   48.1281   -4.4768   -3.0615 F   0  0  0  0  0  0  0  0  0  0  0  0
   49.9086   -4.8398   -4.5841 C   0  0  0  0  0  0  0  0  0  0  0  0
   50.6556   -4.4810   -5.6680 C   0  0  0  0  0  0  0  0  0  0  0  0
  1  2  2  0  0  0
  2  3  1  0  0  0
  3  4  2  0  0  0
  4  5  1  0  0  0
  5  6  2  0  0  0
  6  7  1  0  0  0
  7  8  2  0  0  0
  8  9  1  0  0  0
  8 10  1  0  0  0
 10 11  2  0  0  0
  2 12  1  0  0  0
 12 13  2  0  0  0
 13 14  1  0  0  0
 14 15  2  0  0  0
 15 16  1  0  0  0
 16 17  2  0  0  0
 17 18  1  0  0  0
 17 19  1  0  0  0
 19 20  2  0  0  0
 11  5  1  0  0  0
 20 14  1  0  0  0
M  END
> <minimizedAffinity>
-9.94443

> <CNNscore>
0.6040799022

> <CNNaffinity>
5.6536836624

> <CNN_VS>
3.4152767658

> <CNNaffinity_variance>
0.0963471681

$$$$
[H]/C(C(=O)/C([H])=C(\[H])c1c([H])c([H])c(F)c([H])c1[H])=C(/[H])c1c([H])c([H])c(F)c([H])c1[H]


 20 21  0  0  0  0  0  0  0  0999 V2000
   52.7424   -2.8515   -9.9114 O   0  0  0  0  0  0  0  0  0  0  0  0
   53.2084   -3.5404   -8.8796 C   0  0  0  0  0  0  0  0  0  0  0  0
   52.2655   -3.6643   -7.8371 C   0  0  0  0  0  0  0  0  0  0  0  0
   51.1949   -3.0023   -7.5221 C   0  0  0  0  0  0  0  0  0  0  0  0
   50.3441   -3.3217   -6.3568 C   0  0  0  0  0  0  0  0  0  0  0  0
   50.6489   -4.4818   -5.6323 C   0  0  0  0  0  0  0  0  0  0  0  0
   49.9265   -4.8734   -4.5349 C   0  0  0  0  0  0  0  0  0  0  0  0
   48.8724   -4.1097   -4.1297 C   0  0  0  0  0  0  0  0  0  0  0  0
   48.1472   -4.4937   -3.0363 F   0  0  0  0  0  0  0  0  0  0  0  0
   48.5633   -2.9649   -4.8359 C   0  0  0  0  0  0  0  0  0  0  0  0
   49.3018   -2.5738   -5.9497 C   0  0  0  0  0  0  0  0  0  0  0  0
   54.5276   -3.9865   -9.0601 C   0  0  0  0  0  0  0  0  0  0  0  0
   55.2899   -3.9429  -10.1072 C   0  0  0  0  0  0  0  0  0  0  0  0
   56.6605   -4.4761  -10.0773 C   0  0  0  0  0  0  0  0  0  0  0  0
   57.4991   -4.5516  -11.1347 C   0  0  0  0  0  0  0  0  0  0  0  0
   58.7987   -5.0694  -11.0538 C   0  0  0  0  0  0  0  0  0  0  0  0
   59.2632   -5.5284   -9.8490 C   0  0  0  0  0  0  0  0  0  0  0  0
   60.5068   -6.0415   -9.6959 F   0  0  0  0  0  0  0  0  0  0  0  0
   58.4122   -5.4575   -8.7513 C   0  0  0  0  0  0  0  0  0  0  0  0
   57.1493   -4.9502   -8.8479 C   0  0  0  0  0  0  0  0  0  0  0  0
  1  2  2  0  0  0
  2  3  1  0  0  0
  3  4  2  0  0  0
  4  5  1  0  0  0
  5  6  2  0  0  0
  6  7  1  0  0  0
  7  8  2  0  0  0
  8  9  1  0  0  0
  8 10  1  0  0  0
 10 11  2  0  0  0
  2 12  1  0  0  0
 12 13  2  0  0  0
 13 14  1  0  0  0
 14 15  2  0  0  0
 15 16  1  0  0  0
 16 17  2  0  0  0
 17 18  1  0  0  0
 17 19  1  0  0  0
 19 20  2  0  0  0
 11  5  1  0  0  0
 20 14  1  0  0  0
M  END
> <minimizedAffinity>
-9.92024

> <CNNscore>
0.6000337601

> <CNNaffinity>
5.6454720497

> <CNN_VS>
3.3874738216

> <CNNaffinity_variance>
0.0983304679

$$$$
[H]/C(C(=O)/C([H])=C(\[H])c1c([H])c([H])c(F)c([H])c1[H])=C(/[H])c1c([H])c([H])c(F)c([H])c1[H]


 20 21  0  0  0  0  0  0  0  0999 V2000
   52.1663   -2.5104   -9.6513 O   0  0  0  0  0  0  0  0  0  0  0  0
   52.9416   -3.2923   -8.9137 C   0  0  0  0  0  0  0  0  0  0  0  0
   54.1958   -3.5365   -9.5126 C   0  0  0  0  0  0  0  0  0  0  0  0
   55.1811   -4.3293   -9.2229 C   0  0  0  0  0  0  0  0  0  0  0  0
   56.4263   -4.4161  -10.0140 C   0  0  0  0  0  0  0  0  0  0  0  0
   56.4473   -3.7735  -11.2592 C   0  0  0  0  0  0  0  0  0  0  0  0
   57.5487   -3.7894  -12.0752 C   0  0  0  0  0  0  0  0  0  0  0  0
   58.6667   -4.4531  -11.6651 C   0  0  0  0  0  0  0  0  0  0  0  0
   59.7689   -4.4734  -12.4735 F   0  0  0  0  0  0  0  0  0  0  0  0
   58.6570   -5.0895  -10.4405 C   0  0  0  0  0  0  0  0  0  0  0  0
   57.5343   -5.0690   -9.6171 C   0  0  0  0  0  0  0  0  0  0  0  0
   52.3393   -3.6963   -7.7113 C   0  0  0  0  0  0  0  0  0  0  0  0
   51.1273   -3.5277   -7.2843 C   0  0  0  0  0  0  0  0  0  0  0  0
   50.7008   -4.0402   -5.9731 C   0  0  0  0  0  0  0  0  0  0  0  0
   49.6693   -3.5655   -5.2399 C   0  0  0  0  0  0  0  0  0  0  0  0
   49.3026   -4.0899   -3.9933 C   0  0  0  0  0  0  0  0  0  0  0  0
   50.0139   -5.1390   -3.4723 C   0  0  0  0  0  0  0  0  0  0  0  0
   49.7172   -5.6962   -2.2746 F   0  0  0  0  0  0  0  0  0  0  0  0
   51.0783   -5.6389   -4.2148 C   0  0  0  0  0  0  0  0  0  0  0  0
   51.4218   -5.1160   -5.4273 C   0  0  0  0  0  0  0  0  0  0  0  0
  1  2  2  0  0  0
  2  3  1  0  0  0
  3  4  2  0  0  0
  4  5  1  0  0  0
  5  6  2  0  0  0
  6  7  1  0  0  0
  7  8  2  0  0  0
  8  9  1  0  0  0
  8 10  1  0  0  0
 10 11  2  0  0  0
  2 12  1  0  0  0
 12 13  2  0  0  0
 13 14  1  0  0  0
 14 15  2  0  0  0
 15 16  1  0  0  0
 16 17  2  0  0  0
 17 18  1  0  0  0
 17 19  1  0  0  0
 19 20  2  0  0  0
 11  5  1  0  0  0
 20 14  1  0  0  0
M  END
> <minimizedAffinity>
-9.29182

> <CNNscore>
0.5164265037

> <CNNaffinity>
5.7014188766

> <CNN_VS>
2.9443638325

> <CNNaffinity_variance>
0.1764601618

$$$$
[H]/C(C(=O)/C([H])=C(\[H])c1c([H])c([H])c(F)c([H])c1[H])=C(/[H])c1c([H])c([H])c(F)c([H])c1[H]


 20 21  0  0  0  0  0  0  0  0999 V2000
   52.0661   -2.5308   -9.5011 O   0  0  0  0  0  0  0  0  0  0  0  0
   52.8756   -3.3324   -8.8239 C   0  0  0  0  0  0  0  0  0  0  0  0
   52.3127   -3.7730   -7.6072 C   0  0  0  0  0  0  0  0  0  0  0  0
   51.1159   -3.7190   -7.1091 C   0  0  0  0  0  0  0  0  0  0  0  0
   50.7524   -4.2599   -5.7828 C   0  0  0  0  0  0  0  0  0  0  0  0
   51.5507   -5.2874   -5.2626 C   0  0  0  0  0  0  0  0  0  0  0  0
   51.3052   -5.8620   -4.0424 C   0  0  0  0  0  0  0  0  0  0  0  0
   50.2471   -5.4212   -3.3043 C   0  0  0  0  0  0  0  0  0  0  0  0
   49.9958   -5.9893   -2.0865 F   0  0  0  0  0  0  0  0  0  0  0  0
   49.4542   -4.4096   -3.8070 C   0  0  0  0  0  0  0  0  0  0  0  0
   49.7100   -3.8309   -5.0474 C   0  0  0  0  0  0  0  0  0  0  0  0
   54.1018   -3.5580   -9.4700 C   0  0  0  0  0  0  0  0  0  0  0  0
   55.1230   -4.2668   -9.1034 C   0  0  0  0  0  0  0  0  0  0  0  0
   56.3249   -4.3678   -9.9454 C   0  0  0  0  0  0  0  0  0  0  0  0
   57.4610   -5.0240   -9.6203 C   0  0  0  0  0  0  0  0  0  0  0  0
   58.5810   -5.0907  -10.4597 C   0  0  0  0  0  0  0  0  0  0  0  0
   58.5433   -4.4647  -11.6782 C   0  0  0  0  0  0  0  0  0  0  0  0
   59.5869   -4.4867  -12.5404 F   0  0  0  0  0  0  0  0  0  0  0  0
   57.3812   -3.7851  -12.0273 C   0  0  0  0  0  0  0  0  0  0  0  0
   56.2995   -3.7303  -11.1976 C   0  0  0  0  0  0  0  0  0  0  0  0
  1  2  2  0  0  0
  2  3  1  0  0  0
  3  4  2  0  0  0
  4  5  1  0  0  0
  5  6  2  0  0  0
  6  7  1  0  0  0
  7  8  2  0  0  0
  8  9  1  0  0  0
  8 10  1  0  0  0
 10 11  2  0  0  0
  2 12  1  0  0  0
 12 13  2  0  0  0
 13 14  1  0  0  0
 14 15  2  0  0  0
 15 16  1  0  0  0
 16 17  2  0  0  0
 17 18  1  0  0  0
 17 19  1  0  0  0
 19 20  2  0  0  0
 11  5  1  0  0  0
 20 14  1  0  0  0
M  END
> <minimizedAffinity>
-9.18874

> <CNNscore>
0.4648374915

> <CNNaffinity>
5.6407523155

> <CNN_VS>
2.6220331192

> <CNNaffinity_variance>
0.1721459627

$$$$
[H]/C(C(=O)/C([H])=C(\[H])c1c([H])c([H])c(F)c([H])c1[H])=C(/[H])c1c([H])c([H])c(F)c([H])c1[H]


 20 21  0  0  0  0  0  0  0  0999 V2000
   56.4421   -5.1029   -8.0075 O   0  0  0  0  0  0  0  0  0  0  0  0
   55.7293   -4.3781   -8.8578 C   0  0  0  0  0  0  0  0  0  0  0  0
   56.4018   -4.1525  -10.0777 C   0  0  0  0  0  0  0  0  0  0  0  0
   56.0583   -4.2877  -11.3216 C   0  0  0  0  0  0  0  0  0  0  0  0
   56.9515   -3.9829  -12.4588 C   0  0  0  0  0  0  0  0  0  0  0  0
   56.3596   -3.8080  -13.7169 C   0  0  0  0  0  0  0  0  0  0  0  0
   57.0923   -3.5223  -14.8398 C   0  0  0  0  0  0  0  0  0  0  0  0
   58.4463   -3.4030  -14.7339 C   0  0  0  0  0  0  0  0  0  0  0  0
   59.1837   -3.1182  -15.8492 F   0  0  0  0  0  0  0  0  0  0  0  0
   59.0396   -3.5732  -13.4995 C   0  0  0  0  0  0  0  0  0  0  0  0
   58.2886   -3.8633  -12.3634 C   0  0  0  0  0  0  0  0  0  0  0  0
   54.4744   -4.0031   -8.3516 C   0  0  0  0  0  0  0  0  0  0  0  0
   53.5380   -4.7228   -7.8180 C   0  0  0  0  0  0  0  0  0  0  0  0
   52.2828   -4.1171   -7.3476 C   0  0  0  0  0  0  0  0  0  0  0  0
   51.7076   -3.0038   -7.8543 C   0  0  0  0  0  0  0  0  0  0  0  0
   50.5080   -2.4658   -7.3694 C   0  0  0  0  0  0  0  0  0  0  0  0
   49.8686   -3.0853   -6.3277 C   0  0  0  0  0  0  0  0  0  0  0  0
   48.7072   -2.6226   -5.8078 F   0  0  0  0  0  0  0  0  0  0  0  0
   50.4479   -4.2320   -5.7952 C   0  0  0  0  0  0  0  0  0  0  0  0
   51.6168   -4.7425   -6.2797 C   0  0  0  0  0  0  0  0  0  0  0  0
  1  2  2  0  0  0
  2  3  1  0  0  0
  3  4  2  0  0  0
  4  5  1  0  0  0
  5  6  2  0  0  0
  6  7  1  0  0  0
  7  8  2  0  0  0
  8  9  1  0  0  0
  8 10  1  0  0  0
 10 11  2  0  0  0
  2 12  1  0  0  0
 12 13  2  0  0  0
 13 14  1  0  0  0
 14 15  2  0  0  0
 15 16  1  0  0  0
 16 17  2  0  0  0
 17 18  1  0  0  0
 17 19  1  0  0  0
 19 20  2  0  0  0
 11  5  1  0  0  0
 20 14  1  0  0  0
M  END
> <minimizedAffinity>
-8.84040

> <CNNscore>
0.3466555476

> <CNNaffinity>
5.3285188675

> <CNN_VS>
1.8471605778

> <CNNaffinity_variance>
0.0948166177

$$$$
[H]/C(C(=O)/C([H])=C(\[H])c1c([H])c([H])c(F)c([H])c1[H])=C(/[H])c1c([H])c([H])c(F)c([H])c1[H]


 20 21  0  0  0  0  0  0  0  0999 V2000
   55.0499   -3.6131  -10.5913 O   0  0  0  0  0  0  0  0  0  0  0  0
   55.3122   -4.1874   -9.4261 C   0  0  0  0  0  0  0  0  0  0  0  0
   56.6330   -4.6776   -9.3458 C   0  0  0  0  0  0  0  0  0  0  0  0
   57.5166   -5.0048  -10.2378 C   0  0  0  0  0  0  0  0  0  0  0  0
   58.8678   -5.5064   -9.9111 C   0  0  0  0  0  0  0  0  0  0  0  0
   59.1280   -5.8399   -8.5751 C   0  0  0  0  0  0  0  0  0  0  0  0
   60.3455   -6.3144   -8.1604 C   0  0  0  0  0  0  0  0  0  0  0  0
   61.3426   -6.4692   -9.0772 C   0  0  0  0  0  0  0  0  0  0  0  0
   62.5594   -6.9418   -8.6713 F   0  0  0  0  0  0  0  0  0  0  0  0
   61.0971   -6.1437  -10.3958 C   0  0  0  0  0  0  0  0  0  0  0  0
   59.8577   -5.6623  -10.8094 C   0  0  0  0  0  0  0  0  0  0  0  0
   54.2203   -4.1763   -8.5432 C   0  0  0  0  0  0  0  0  0  0  0  0
   53.0564   -3.6181   -8.6587 C   0  0  0  0  0  0  0  0  0  0  0  0
   52.0448   -3.7337   -7.5970 C   0  0  0  0  0  0  0  0  0  0  0  0
   52.0210   -4.6798   -6.6319 C   0  0  0  0  0  0  0  0  0  0  0  0
   51.0328   -4.7467   -5.6408 C   0  0  0  0  0  0  0  0  0  0  0  0
   50.0290   -3.8138   -5.6315 C   0  0  0  0  0  0  0  0  0  0  0  0
   49.0415   -3.8163   -4.7053 F   0  0  0  0  0  0  0  0  0  0  0  0
   50.0394   -2.8337   -6.6181 C   0  0  0  0  0  0  0  0  0  0  0  0
   51.0097   -2.7833   -7.5760 C   0  0  0  0  0  0  0  0  0  0  0  0
  1  2  2  0  0  0
  2  3  1  0  0  0
  3  4  2  0  0  0
  4  5  1  0  0  0
  5  6  2  0  0  0
  6  7  1  0  0  0
  7  8  2  0  0  0
  8  9  1  0  0  0
  8 10  1  0  0  0
 10 11  2  0  0  0
  2 12  1  0  0  0
 12 13  2  0  0  0
 13 14  1  0  0  0
 14 15  2  0  0  0
 15 16  1  0  0  0
 16 17  2  0  0  0
 17 18  1  0  0  0
 17 19  1  0  0  0
 19 20  2  0  0  0
 11  5  1  0  0  0
 20 14  1  0  0  0
M  END
> <minimizedAffinity>
-7.14879

> <CNNscore>
0.3079472780

> <CNNaffinity>
4.9970149994

> <CNN_VS>
1.5388171673

> <CNNaffinity_variance>
0.0756103098

$$$$
[H]/C(C(=O)/C([H])=C(\[H])c1c([H])c([H])c(F)c([H])c1[H])=C(/[H])c1c([H])c([H])c(F)c([H])c1[H]


 20 21  0  0  0  0  0  0  0  0999 V2000
   54.1483   -3.3690   -9.8762 O   0  0  0  0  0  0  0  0  0  0  0  0
   54.5482   -4.0536   -8.8142 C   0  0  0  0  0  0  0  0  0  0  0  0
   53.5466   -4.1591   -7.8258 C   0  0  0  0  0  0  0  0  0  0  0  0
   52.2606   -3.9881   -7.8401 C   0  0  0  0  0  0  0  0  0  0  0  0
   51.3954   -4.1585   -6.6541 C   0  0  0  0  0  0  0  0  0  0  0  0
   51.7790   -5.1168   -5.7064 C   0  0  0  0  0  0  0  0  0  0  0  0
   51.0514   -5.3578   -4.5697 C   0  0  0  0  0  0  0  0  0  0  0  0
   49.9125   -4.6417   -4.3488 C   0  0  0  0  0  0  0  0  0  0  0  0
   49.1817   -4.8763   -3.2176 F   0  0  0  0  0  0  0  0  0  0  0  0
   49.5255   -3.6952   -5.2757 C   0  0  0  0  0  0  0  0  0  0  0  0
   50.2698   -3.4562   -6.4280 C   0  0  0  0  0  0  0  0  0  0  0  0
   55.8707   -4.5144   -8.9163 C   0  0  0  0  0  0  0  0  0  0  0  0
   56.6385   -4.6312   -9.9538 C   0  0  0  0  0  0  0  0  0  0  0  0
   58.0118   -5.1445   -9.8342 C   0  0  0  0  0  0  0  0  0  0  0  0
   58.8656   -5.3554  -10.8607 C   0  0  0  0  0  0  0  0  0  0  0  0
   60.1670   -5.8471  -10.6935 C   0  0  0  0  0  0  0  0  0  0  0  0
   60.6174   -6.1356   -9.4318 C   0  0  0  0  0  0  0  0  0  0  0  0
   61.8618   -6.6135   -9.1945 F   0  0  0  0  0  0  0  0  0  0  0  0
   59.7506   -5.9240   -8.3650 C   0  0  0  0  0  0  0  0  0  0  0  0
   58.4862   -5.4444   -8.5458 C   0  0  0  0  0  0  0  0  0  0  0  0
  1  2  2  0  0  0
  2  3  1  0  0  0
  3  4  2  0  0  0
  4  5  1  0  0  0
  5  6  2  0  0  0
  6  7  1  0  0  0
  7  8  2  0  0  0
  8  9  1  0  0  0
  8 10  1  0  0  0
 10 11  2  0  0  0
  2 12  1  0  0  0
 12 13  2  0  0  0
 13 14  1  0  0  0
 14 15  2  0  0  0
 15 16  1  0  0  0
 16 17  2  0  0  0
 17 18  1  0  0  0
 17 19  1  0  0  0
 19 20  2  0  0  0
 11  5  1  0  0  0
 20 14  1  0  0  0
M  END
> <minimizedAffinity>
-7.56487

> <CNNscore>
0.3058297038

> <CNNaffinity>
5.1772627831

> <CNN_VS>
1.5833607912

> <CNNaffinity_variance>
0.1042405590

$$$$
[H]/C(C(=O)/C([H])=C(\[H])c1c([H])c([H])c(F)c([H])c1[H])=C(/[H])c1c([H])c([H])c(F)c([H])c1[H]


 20 21  0  0  0  0  0  0  0  0999 V2000
   51.9251   -2.4513   -9.0743 O   0  0  0  0  0  0  0  0  0  0  0  0
   52.8093   -3.2719   -8.5257 C   0  0  0  0  0  0  0  0  0  0  0  0
   53.9773   -3.4135   -9.3048 C   0  0  0  0  0  0  0  0  0  0  0  0
   55.0458   -4.1394   -9.1832 C   0  0  0  0  0  0  0  0  0  0  0  0
   56.1663   -4.1209  -10.1464 C   0  0  0  0  0  0  0  0  0  0  0  0
   57.3528   -4.7649   -9.7705 C   0  0  0  0  0  0  0  0  0  0  0  0
   58.4542   -4.8093  -10.5856 C   0  0  0  0  0  0  0  0  0  0  0  0
   58.3982   -4.2067  -11.8072 C   0  0  0  0  0  0  0  0  0  0  0  0
   59.4926   -4.2468  -12.6255 F   0  0  0  0  0  0  0  0  0  0  0  0
   57.2346   -3.5695  -12.1876 C   0  0  0  0  0  0  0  0  0  0  0  0
   56.1199   -3.5286  -11.3541 C   0  0  0  0  0  0  0  0  0  0  0  0
   52.3825   -3.8096   -7.3007 C   0  0  0  0  0  0  0  0  0  0  0  0
   51.1913   -4.1107   -6.8886 C   0  0  0  0  0  0  0  0  0  0  0  0
   50.9657   -4.6715   -5.5475 C   0  0  0  0  0  0  0  0  0  0  0  0
   51.7033   -5.6438   -4.9665 C   0  0  0  0  0  0  0  0  0  0  0  0
   51.4466   -6.1448   -3.6834 C   0  0  0  0  0  0  0  0  0  0  0  0
   50.3977   -5.6361   -2.9629 C   0  0  0  0  0  0  0  0  0  0  0  0
   50.0905   -6.0713   -1.7182 F   0  0  0  0  0  0  0  0  0  0  0  0
   49.6291   -4.6350   -3.5470 C   0  0  0  0  0  0  0  0  0  0  0  0
   49.8932   -4.1587   -4.7980 C   0  0  0  0  0  0  0  0  0  0  0  0
  1  2  2  0  0  0
  2  3  1  0  0  0
  3  4  2  0  0  0
  4  5  1  0  0  0
  5  6  2  0  0  0
  6  7  1  0  0  0
  7  8  2  0  0  0
  8  9  1  0  0  0
  8 10  1  0  0  0
 10 11  2  0  0  0
  2 12  1  0  0  0
 12 13  2  0  0  0
 13 14  1  0  0  0
 14 15  2  0  0  0
 15 16  1  0  0  0
 16 17  2  0  0  0
 17 18  1  0  0  0
 17 19  1  0  0  0
 19 20  2  0  0  0
 11  5  1  0  0  0
 20 14  1  0  0  0
M  END
> <minimizedAffinity>
-8.61312

> <CNNscore>
0.3033004403

> <CNNaffinity>
5.4715142250

> <CNN_VS>
1.6595126390

> <CNNaffinity_variance>
0.2288445979

$$$$
[H]/C(C(=O)/C([H])=C(\[H])c1c([H])c([H])c(F)c([H])c1[H])=C(/[H])c1c([H])c([H])c(F)c([H])c1[H]


 20 21  0  0  0  0  0  0  0  0999 V2000
   54.5459   -6.8358   -5.6393 O   0  0  0  0  0  0  0  0  0  0  0  0
   54.1728   -5.8321   -6.4202 C   0  0  0  0  0  0  0  0  0  0  0  0
   52.9725   -5.2262   -5.9918 C   0  0  0  0  0  0  0  0  0  0  0  0
   51.8609   -4.9309   -6.5924 C   0  0  0  0  0  0  0  0  0  0  0  0
   50.7130   -4.2826   -5.9247 C   0  0  0  0  0  0  0  0  0  0  0  0
   50.1035   -3.2075   -6.5855 C   0  0  0  0  0  0  0  0  0  0  0  0
   49.0324   -2.5336   -6.0584 C   0  0  0  0  0  0  0  0  0  0  0  0
   48.5383   -2.9196   -4.8478 C   0  0  0  0  0  0  0  0  0  0  0  0
   47.4703   -2.2524   -4.3157 F   0  0  0  0  0  0  0  0  0  0  0  0
   49.1309   -3.9773   -4.1883 C   0  0  0  0  0  0  0  0  0  0  0  0
   50.2188   -4.6569   -4.7301 C   0  0  0  0  0  0  0  0  0  0  0  0
   55.0537   -5.6033   -7.4895 C   0  0  0  0  0  0  0  0  0  0  0  0
   55.1510   -4.5901   -8.2916 C   0  0  0  0  0  0  0  0  0  0  0  0
   56.1613   -4.5556   -9.3602 C   0  0  0  0  0  0  0  0  0  0  0  0
   55.9907   -4.0163  -10.5878 C   0  0  0  0  0  0  0  0  0  0  0  0
   56.9872   -4.0090  -11.5730 C   0  0  0  0  0  0  0  0  0  0  0  0
   58.2055   -4.5729  -11.2979 C   0  0  0  0  0  0  0  0  0  0  0  0
   59.2144   -4.6024  -12.2002 F   0  0  0  0  0  0  0  0  0  0  0  0
   58.3967   -5.1322  -10.0389 C   0  0  0  0  0  0  0  0  0  0  0  0
   57.4152   -5.1306   -9.0912 C   0  0  0  0  0  0  0  0  0  0  0  0
  1  2  2  0  0  0
  2  3  1  0  0  0
  3  4  2  0  0  0
  4  5  1  0  0  0
  5  6  2  0  0  0
  6  7  1  0  0  0
  7  8  2  0  0  0
  8  9  1  0  0  0
  8 10  1  0  0  0
 10 11  2  0  0  0
  2 12  1  0  0  0
 12 13  2  0  0  0
 13 14  1  0  0  0
 14 15  2  0  0  0
 15 16  1  0  0  0
 16 17  2  0  0  0
 17 18  1  0  0  0
 17 19  1  0  0  0
 19 20  2  0  0  0
 11  5  1  0  0  0
 20 14  1  0  0  0
M  END
> <minimizedAffinity>
-9.32188

> <CNNscore>
0.2893218696

> <CNNaffinity>
5.4346837997

> <CNN_VS>
1.5723729134

> <CNNaffinity_variance>
0.1763876826

$$$$
[H]Oc1c([H])c([H])c(N([H])c2nc([H])c(F)c(N([H])c3c([H])c([H])c(C(=O)N([H])[H])c([H])c3[H])n2)c([H])c1[H]


 30 32  0  0  0  0  0  0  0  0999 V2000
   54.3618   -4.7040   -7.7815 C   0  0  0  0  0  0  0  0  0  0  0  0
   53.1669   -4.1806   -7.5623 N   0  0  0  0  0  0  0  0  0  0  0  0
   52.5729   -3.3355   -8.4539 C   0  0  0  0  0  0  0  0  0  0  0  0
   53.2487   -3.0478   -9.5763 N   0  0  0  0  0  0  0  0  0  0  0  0
   54.4500   -3.5360   -9.8616 C   0  0  0  0  0  0  0  0  0  0  0  0
   55.0547   -4.3894   -8.9660 C   0  0  0  0  0  0  0  0  0  0  0  0
   56.2698   -4.9158   -9.2000 F   0  0  0  0  0  0  0  0  0  0  0  0
   55.0209   -5.5675   -6.8694 N   0  0  0  0  0  0  0  0  0  0  0  0
   55.7244   -6.2520   -7.2789 H   0  0  0  0  0  0  0  0  0  0  0  0
   54.6075   -5.6282   -2.6754 C   0  0  0  0  0  0  0  0  0  0  0  0
   53.7499   -6.3070   -3.4764 C   0  0  0  0  0  0  0  0  0  0  0  0
   53.8602   -6.3176   -4.8714 C   0  0  0  0  0  0  0  0  0  0  0  0
   54.8526   -5.6312   -5.4732 C   0  0  0  0  0  0  0  0  0  0  0  0
   55.7589   -4.9166   -4.6615 C   0  0  0  0  0  0  0  0  0  0  0  0
   55.6307   -4.9216   -3.3014 C   0  0  0  0  0  0  0  0  0  0  0  0
   53.8636   -4.5410   -0.5723 N   0  0  0  0  0  0  0  0  0  0  0  0
   54.4973   -5.6135   -1.2215 C   0  0  0  0  0  0  0  0  0  0  0  0
   54.9683   -6.5575   -0.5575 O   0  0  0  0  0  0  0  0  0  0  0  0
   54.4334   -3.7592   -0.1973 H   0  0  0  0  0  0  0  0  0  0  0  0
   52.8355   -4.5038   -0.4540 H   0  0  0  0  0  0  0  0  0  0  0  0
   51.3136   -2.8025   -8.1280 N   0  0  0  0  0  0  0  0  0  0  0  0
   50.8804   -2.1172   -8.8149 H   0  0  0  0  0  0  0  0  0  0  0  0
   50.5909   -3.1053   -6.9722 C   0  0  0  0  0  0  0  0  0  0  0  0
   49.5910   -2.3337   -6.4583 C   0  0  0  0  0  0  0  0  0  0  0  0
   48.9062   -2.6661   -5.2690 C   0  0  0  0  0  0  0  0  0  0  0  0
   49.2509   -3.8112   -4.5931 C   0  0  0  0  0  0  0  0  0  0  0  0
   48.5808   -4.1472   -3.4185 O   0  0  0  0  0  0  0  0  0  0  0  0
   50.2585   -4.6234   -5.0792 C   0  0  0  0  0  0  0  0  0  0  0  0
   50.9015   -4.2707   -6.2344 C   0  0  0  0  0  0  0  0  0  0  0  0
   48.9719   -3.7892   -2.5553 H   0  0  0  0  0  0  0  0  0  0  0  0
 16 17  1  0  0  0
 17 18  2  0  0  0
 17 10  1  0  0  0
 10 11  2  0  0  0
 11 12  1  0  0  0
 12 13  2  0  0  0
 13  8  1  0  0  0
  8  1  1  0  0  0
  1  2  2  0  0  0
  2  3  1  0  0  0
  3 21  1  0  0  0
 21 23  1  0  0  0
 23 24  2  0  0  0
 24 25  1  0  0  0
 25 26  2  0  0  0
 26 27  1  0  0  0
 26 28  1  0  0  0
 28 29  2  0  0  0
  3  4  2  0  0  0
  4  5  1  0  0  0
  5  6  2  0  0  0
  6  7  1  0  0  0
 13 14  1  0  0  0
 14 15  2  0  0  0
 15 10  1  0  0  0
  6  1  1  0  0  0
 29 23  1  0  0  0
 16 19  1  0  0  0
 16 20  1  0  0  0
  8  9  1  0  0  0
 21 22  1  0  0  0
 27 30  1  0  0  0
M  END
> <minimizedAffinity>
-9.80683

> <CNNscore>
0.9086751938

> <CNNaffinity>
7.3947043419

> <CNN_VS>
6.7193841934

> <CNNaffinity_variance>
0.1014191359

$$$$
[H]Oc1c([H])c([H])c(N([H])c2nc([H])c(F)c(N([H])c3c([H])c([H])c(C(=O)N([H])[H])c([H])c3[H])n2)c([H])c1[H]


 30 32  0  0  0  0  0  0  0  0999 V2000
   52.4724   -4.3132   -7.3595 C   0  0  0  0  0  0  0  0  0  0  0  0
   53.5528   -4.2222   -8.1173 N   0  0  0  0  0  0  0  0  0  0  0  0
   53.7256   -3.2061   -9.0115 C   0  0  0  0  0  0  0  0  0  0  0  0
   52.7509   -2.2887   -9.0995 N   0  0  0  0  0  0  0  0  0  0  0  0
   51.6411   -2.3172   -8.3713 C   0  0  0  0  0  0  0  0  0  0  0  0
   51.4608   -3.3399   -7.4671 C   0  0  0  0  0  0  0  0  0  0  0  0
   50.3582   -3.4216   -6.7017 F   0  0  0  0  0  0  0  0  0  0  0  0
   52.2466   -5.3656   -6.4357 N   0  0  0  0  0  0  0  0  0  0  0  0
   51.2474   -5.7183   -6.3443 H   0  0  0  0  0  0  0  0  0  0  0  0
   54.9800   -7.2720   -3.8555 C   0  0  0  0  0  0  0  0  0  0  0  0
   55.1236   -7.3342   -5.2020 C   0  0  0  0  0  0  0  0  0  0  0  0
   54.2420   -6.7075   -6.0898 C   0  0  0  0  0  0  0  0  0  0  0  0
   53.1944   -6.0045   -5.6140 C   0  0  0  0  0  0  0  0  0  0  0  0
   53.0230   -5.9242   -4.2157 C   0  0  0  0  0  0  0  0  0  0  0  0
   53.8973   -6.5445   -3.3690 C   0  0  0  0  0  0  0  0  0  0  0  0
   55.4088   -8.4893   -1.7358 N   0  0  0  0  0  0  0  0  0  0  0  0
   55.8955   -7.9232   -2.9257 C   0  0  0  0  0  0  0  0  0  0  0  0
   57.1120   -7.9748   -3.1921 O   0  0  0  0  0  0  0  0  0  0  0  0
   55.4436   -7.9417   -0.8552 H   0  0  0  0  0  0  0  0  0  0  0  0
   55.0121   -9.4454   -1.7074 H   0  0  0  0  0  0  0  0  0  0  0  0
   54.8913   -3.2023   -9.7971 N   0  0  0  0  0  0  0  0  0  0  0  0
   54.9092   -2.5578  -10.6418 H   0  0  0  0  0  0  0  0  0  0  0  0
   56.0249   -3.9797   -9.5513 C   0  0  0  0  0  0  0  0  0  0  0  0
   56.4510   -4.3597   -8.3131 C   0  0  0  0  0  0  0  0  0  0  0  0
   57.6213   -5.1235   -8.1108 C   0  0  0  0  0  0  0  0  0  0  0  0
   58.3694   -5.5068   -9.1973 C   0  0  0  0  0  0  0  0  0  0  0  0
   59.5258   -6.2606   -9.0075 O   0  0  0  0  0  0  0  0  0  0  0  0
   57.9733   -5.1442  -10.4712 C   0  0  0  0  0  0  0  0  0  0  0  0
   56.8341   -4.4032  -10.6306 C   0  0  0  0  0  0  0  0  0  0  0  0
   60.3878   -5.7438   -8.8801 H   0  0  0  0  0  0  0  0  0  0  0  0
 16 17  1  0  0  0
 17 18  2  0  0  0
 17 10  1  0  0  0
 10 11  2  0  0  0
 11 12  1  0  0  0
 12 13  2  0  0  0
 13  8  1  0  0  0
  8  1  1  0  0  0
  1  2  2  0  0  0
  2  3  1  0  0  0
  3 21  1  0  0  0
 21 23  1  0  0  0
 23 24  2  0  0  0
 24 25  1  0  0  0
 25 26  2  0  0  0
 26 27  1  0  0  0
 26 28  1  0  0  0
 28 29  2  0  0  0
  3  4  2  0  0  0
  4  5  1  0  0  0
  5  6  2  0  0  0
  6  7  1  0  0  0
 13 14  1  0  0  0
 14 15  2  0  0  0
 15 10  1  0  0  0
  6  1  1  0  0  0
 29 23  1  0  0  0
 16 19  1  0  0  0
 16 20  1  0  0  0
  8  9  1  0  0  0
 21 22  1  0  0  0
 27 30  1  0  0  0
M  END
> <minimizedAffinity>
-9.52034

> <CNNscore>
0.8972446918

> <CNNaffinity>
6.9859862328

> <CNN_VS>
6.2681388855

> <CNNaffinity_variance>
0.0181887541

$$$$
[H]Oc1c([H])c([H])c(N([H])c2nc([H])c(F)c(N([H])c3c([H])c([H])c(C(=O)N([H])[H])c([H])c3[H])n2)c([H])c1[H]


 30 32  0  0  0  0  0  0  0  0999 V2000
   54.5684   -4.6416   -7.8372 C   0  0  0  0  0  0  0  0  0  0  0  0
   53.3590   -4.1567   -7.6094 N   0  0  0  0  0  0  0  0  0  0  0  0
   52.6909   -3.4137   -8.5387 C   0  0  0  0  0  0  0  0  0  0  0  0
   53.3083   -3.1869   -9.7078 N   0  0  0  0  0  0  0  0  0  0  0  0
   54.5198   -3.6419  -10.0044 C   0  0  0  0  0  0  0  0  0  0  0  0
   55.1992   -4.3923   -9.0709 C   0  0  0  0  0  0  0  0  0  0  0  0
   56.4283   -4.8805   -9.3141 F   0  0  0  0  0  0  0  0  0  0  0  0
   55.3031   -5.3984   -6.8888 N   0  0  0  0  0  0  0  0  0  0  0  0
   56.0837   -6.0141   -7.2665 H   0  0  0  0  0  0  0  0  0  0  0  0
   54.6603   -5.6376   -2.7302 C   0  0  0  0  0  0  0  0  0  0  0  0
   55.7123   -4.9519   -3.2408 C   0  0  0  0  0  0  0  0  0  0  0  0
   55.9535   -4.8430   -4.6149 C   0  0  0  0  0  0  0  0  0  0  0  0
   55.1203   -5.4363   -5.4935 C   0  0  0  0  0  0  0  0  0  0  0  0
   54.0172   -6.1559   -4.9873 C   0  0  0  0  0  0  0  0  0  0  0  0
   53.8025   -6.2478   -3.6413 C   0  0  0  0  0  0  0  0  0  0  0  0
   53.9907   -4.6325   -0.5623 N   0  0  0  0  0  0  0  0  0  0  0  0
   54.4042   -5.7545   -1.2994 C   0  0  0  0  0  0  0  0  0  0  0  0
   54.5541   -6.8551   -0.7337 O   0  0  0  0  0  0  0  0  0  0  0  0
   54.6934   -4.0707   -0.0454 H   0  0  0  0  0  0  0  0  0  0  0  0
   52.9973   -4.3439   -0.5168 H   0  0  0  0  0  0  0  0  0  0  0  0
   51.4209   -2.9135   -8.2027 N   0  0  0  0  0  0  0  0  0  0  0  0
   50.9520   -2.2624   -8.8994 H   0  0  0  0  0  0  0  0  0  0  0  0
   50.7307   -3.2073   -7.0249 C   0  0  0  0  0  0  0  0  0  0  0  0
   50.9830   -4.2832   -6.2261 C   0  0  0  0  0  0  0  0  0  0  0  0
   50.2389   -4.5562   -5.0574 C   0  0  0  0  0  0  0  0  0  0  0  0
   49.2173   -3.7108   -4.6989 C   0  0  0  0  0  0  0  0  0  0  0  0
   48.4774   -3.9720   -3.5475 O   0  0  0  0  0  0  0  0  0  0  0  0
   48.9279   -2.6072   -5.4796 C   0  0  0  0  0  0  0  0  0  0  0  0
   49.6689   -2.3732   -6.6058 C   0  0  0  0  0  0  0  0  0  0  0  0
   47.6554   -4.5534   -3.6592 H   0  0  0  0  0  0  0  0  0  0  0  0
 16 17  1  0  0  0
 17 18  2  0  0  0
 17 10  1  0  0  0
 10 11  2  0  0  0
 11 12  1  0  0  0
 12 13  2  0  0  0
 13  8  1  0  0  0
  8  1  1  0  0  0
  1  2  2  0  0  0
  2  3  1  0  0  0
  3 21  1  0  0  0
 21 23  1  0  0  0
 23 24  2  0  0  0
 24 25  1  0  0  0
 25 26  2  0  0  0
 26 27  1  0  0  0
 26 28  1  0  0  0
 28 29  2  0  0  0
  3  4  2  0  0  0
  4  5  1  0  0  0
  5  6  2  0  0  0
  6  7  1  0  0  0
 13 14  1  0  0  0
 14 15  2  0  0  0
 15 10  1  0  0  0
  6  1  1  0  0  0
 29 23  1  0  0  0
 16 19  1  0  0  0
 16 20  1  0  0  0
  8  9  1  0  0  0
 21 22  1  0  0  0
 27 30  1  0  0  0
M  END
> <minimizedAffinity>
-9.75553

> <CNNscore>
0.8956572413

> <CNNaffinity>
7.3956632614

> <CNN_VS>
6.6239795685

> <CNNaffinity_variance>
0.1171902418

$$$$
[H]Oc1c([H])c([H])c(N([H])c2nc([H])c(F)c(N([H])c3c([H])c([H])c(C(=O)N([H])[H])c([H])c3[H])n2)c([H])c1[H]


 30 32  0  0  0  0  0  0  0  0999 V2000
   51.8939   -4.2437   -7.5331 C   0  0  0  0  0  0  0  0  0  0  0  0
   52.9442   -4.3454   -8.3308 N   0  0  0  0  0  0  0  0  0  0  0  0
   53.3504   -3.3141   -9.1267 C   0  0  0  0  0  0  0  0  0  0  0  0
   52.6405   -2.1771   -9.0742 N   0  0  0  0  0  0  0  0  0  0  0  0
   51.5772   -2.0047   -8.2982 C   0  0  0  0  0  0  0  0  0  0  0  0
   51.1623   -3.0415   -7.4926 C   0  0  0  0  0  0  0  0  0  0  0  0
   50.0931   -2.9262   -6.6852 F   0  0  0  0  0  0  0  0  0  0  0  0
   51.4279   -5.2998   -6.7087 N   0  0  0  0  0  0  0  0  0  0  0  0
   50.8471   -6.0561   -7.1796 H   0  0  0  0  0  0  0  0  0  0  0  0
   52.2195   -5.7789   -2.5968 C   0  0  0  0  0  0  0  0  0  0  0  0
   50.9679   -5.5152   -3.0459 C   0  0  0  0  0  0  0  0  0  0  0  0
   50.6650   -5.3583   -4.4030 C   0  0  0  0  0  0  0  0  0  0  0  0
   51.6405   -5.4682   -5.3274 C   0  0  0  0  0  0  0  0  0  0  0  0
   52.9521   -5.7428   -4.8856 C   0  0  0  0  0  0  0  0  0  0  0  0
   53.2231   -5.8922   -3.5551 C   0  0  0  0  0  0  0  0  0  0  0  0
   53.0871   -4.8738   -0.4552 N   0  0  0  0  0  0  0  0  0  0  0  0
   52.5410   -5.9433   -1.1840 C   0  0  0  0  0  0  0  0  0  0  0  0
   52.3287   -7.0376   -0.6263 O   0  0  0  0  0  0  0  0  0  0  0  0
   54.1153   -4.8088   -0.3320 H   0  0  0  0  0  0  0  0  0  0  0  0
   52.4917   -4.1398   -0.0321 H   0  0  0  0  0  0  0  0  0  0  0  0
   54.4602   -3.5180   -9.9651 N   0  0  0  0  0  0  0  0  0  0  0  0
   54.3643   -3.2263  -10.9824 H   0  0  0  0  0  0  0  0  0  0  0  0
   55.6763   -4.0735   -9.5623 C   0  0  0  0  0  0  0  0  0  0  0  0
   56.6202   -4.5717  -10.4110 C   0  0  0  0  0  0  0  0  0  0  0  0
   57.8249   -5.1509   -9.9559 C   0  0  0  0  0  0  0  0  0  0  0  0
   58.0687   -5.2205   -8.6058 C   0  0  0  0  0  0  0  0  0  0  0  0
   59.2547   -5.7904   -8.1474 O   0  0  0  0  0  0  0  0  0  0  0  0
   57.1392   -4.7265   -7.7098 C   0  0  0  0  0  0  0  0  0  0  0  0
   55.9821   -4.1723   -8.1855 C   0  0  0  0  0  0  0  0  0  0  0  0
   59.2386   -6.7872   -7.9676 H   0  0  0  0  0  0  0  0  0  0  0  0
 16 17  1  0  0  0
 17 18  2  0  0  0
 17 10  1  0  0  0
 10 11  2  0  0  0
 11 12  1  0  0  0
 12 13  2  0  0  0
 13  8  1  0  0  0
  8  1  1  0  0  0
  1  2  2  0  0  0
  2  3  1  0  0  0
  3 21  1  0  0  0
 21 23  1  0  0  0
 23 24  2  0  0  0
 24 25  1  0  0  0
 25 26  2  0  0  0
 26 27  1  0  0  0
 26 28  1  0  0  0
 28 29  2  0  0  0
  3  4  2  0  0  0
  4  5  1  0  0  0
  5  6  2  0  0  0
  6  7  1  0  0  0
 13 14  1  0  0  0
 14 15  2  0  0  0
 15 10  1  0  0  0
  6  1  1  0  0  0
 29 23  1  0  0  0
 16 19  1  0  0  0
 16 20  1  0  0  0
  8  9  1  0  0  0
 21 22  1  0  0  0
 27 30  1  0  0  0
M  END
> <minimizedAffinity>
-10.25595

> <CNNscore>
0.7833458185

> <CNNaffinity>
7.0932197571

> <CNN_VS>
5.5564441681

> <CNNaffinity_variance>
0.0321135931

$$$$
[H]Oc1c([H])c([H])c(N([H])c2nc([H])c(F)c(N([H])c3c([H])c([H])c(C(=O)N([H])[H])c([H])c3[H])n2)c([H])c1[H]


 30 32  0  0  0  0  0  0  0  0999 V2000
   55.1796   -3.8494   -9.6556 C   0  0  0  0  0  0  0  0  0  0  0  0
   55.8966   -4.0546  -10.7480 N   0  0  0  0  0  0  0  0  0  0  0  0
   57.1898   -4.4867  -10.6939 C   0  0  0  0  0  0  0  0  0  0  0  0
   57.7191   -4.7000   -9.4799 N   0  0  0  0  0  0  0  0  0  0  0  0
   57.0591   -4.5151   -8.3428 C   0  0  0  0  0  0  0  0  0  0  0  0
   55.7538   -4.0792   -8.3908 C   0  0  0  0  0  0  0  0  0  0  0  0
   55.0345   -3.8746   -7.2731 F   0  0  0  0  0  0  0  0  0  0  0  0
   53.8414   -3.3795   -9.6705 N   0  0  0  0  0  0  0  0  0  0  0  0
   53.5219   -2.8675  -10.5463 H   0  0  0  0  0  0  0  0  0  0  0  0
   50.8705   -3.6388   -6.6922 C   0  0  0  0  0  0  0  0  0  0  0  0
   51.7052   -4.6767   -6.9450 C   0  0  0  0  0  0  0  0  0  0  0  0
   52.7084   -4.6249   -7.9192 C   0  0  0  0  0  0  0  0  0  0  0  0
   52.8754   -3.5071   -8.6545 C   0  0  0  0  0  0  0  0  0  0  0  0
   52.0194   -2.4122   -8.4103 C   0  0  0  0  0  0  0  0  0  0  0  0
   51.0473   -2.4867   -7.4534 C   0  0  0  0  0  0  0  0  0  0  0  0
   49.8185   -4.7112   -4.7168 N   0  0  0  0  0  0  0  0  0  0  0  0
   49.8234   -3.6872   -5.6785 C   0  0  0  0  0  0  0  0  0  0  0  0
   48.9326   -2.8153   -5.6695 O   0  0  0  0  0  0  0  0  0  0  0  0
   49.2371   -5.5567   -4.8705 H   0  0  0  0  0  0  0  0  0  0  0  0
   50.3818   -4.6501   -3.8501 H   0  0  0  0  0  0  0  0  0  0  0  0
   57.8875   -4.6515  -11.9031 N   0  0  0  0  0  0  0  0  0  0  0  0
   58.9095   -4.9360  -11.8427 H   0  0  0  0  0  0  0  0  0  0  0  0
   57.3395   -4.4700  -13.1746 C   0  0  0  0  0  0  0  0  0  0  0  0
   56.2816   -5.1728  -13.6706 C   0  0  0  0  0  0  0  0  0  0  0  0
   55.7789   -4.9743  -14.9752 C   0  0  0  0  0  0  0  0  0  0  0  0
   56.3700   -4.0374  -15.7874 C   0  0  0  0  0  0  0  0  0  0  0  0
   55.8809   -3.8346  -17.0763 O   0  0  0  0  0  0  0  0  0  0  0  0
   57.4448   -3.3014  -15.3244 C   0  0  0  0  0  0  0  0  0  0  0  0
   57.9065   -3.5201  -14.0550 C   0  0  0  0  0  0  0  0  0  0  0  0
   56.2901   -4.4001  -17.8105 H   0  0  0  0  0  0  0  0  0  0  0  0
 16 17  1  0  0  0
 17 18  2  0  0  0
 17 10  1  0  0  0
 10 11  2  0  0  0
 11 12  1  0  0  0
 12 13  2  0  0  0
 13  8  1  0  0  0
  8  1  1  0  0  0
  1  2  2  0  0  0
  2  3  1  0  0  0
  3 21  1  0  0  0
 21 23  1  0  0  0
 23 24  2  0  0  0
 24 25  1  0  0  0
 25 26  2  0  0  0
 26 27  1  0  0  0
 26 28  1  0  0  0
 28 29  2  0  0  0
  3  4  2  0  0  0
  4  5  1  0  0  0
  5  6  2  0  0  0
  6  7  1  0  0  0
 13 14  1  0  0  0
 14 15  2  0  0  0
 15 10  1  0  0  0
  6  1  1  0  0  0
 29 23  1  0  0  0
 16 19  1  0  0  0
 16 20  1  0  0  0
  8  9  1  0  0  0
 21 22  1  0  0  0
 27 30  1  0  0  0
M  END
> <minimizedAffinity>
-9.10437

> <CNNscore>
0.5438844562

> <CNNaffinity>
6.4907011986

> <CNN_VS>
3.5301914215

> <CNNaffinity_variance>
0.0564708114

$$$$
[H]Oc1c([H])c([H])c(N([H])c2nc([H])c(F)c(N([H])c3c([H])c([H])c(C(=O)N([H])[H])c([H])c3[H])n2)c([H])c1[H]


 30 32  0  0  0  0  0  0  0  0999 V2000
   51.7508   -3.8860   -7.3303 C   0  0  0  0  0  0  0  0  0  0  0  0
   52.9178   -4.4878   -7.4904 N   0  0  0  0  0  0  0  0  0  0  0  0
   53.9184   -3.9384   -8.2381 C   0  0  0  0  0  0  0  0  0  0  0  0
   53.6778   -2.7512   -8.8145 N   0  0  0  0  0  0  0  0  0  0  0  0
   52.5318   -2.0912   -8.6969 C   0  0  0  0  0  0  0  0  0  0  0  0
   51.5183   -2.6402   -7.9437 C   0  0  0  0  0  0  0  0  0  0  0  0
   50.3361   -2.0186   -7.7877 F   0  0  0  0  0  0  0  0  0  0  0  0
   50.6797   -4.4352   -6.5801 N   0  0  0  0  0  0  0  0  0  0  0  0
   49.7209   -4.4347   -7.0406 H   0  0  0  0  0  0  0  0  0  0  0  0
   50.9845   -6.1238   -2.7305 C   0  0  0  0  0  0  0  0  0  0  0  0
   50.0253   -5.2120   -3.0244 C   0  0  0  0  0  0  0  0  0  0  0  0
   49.8874   -4.6362   -4.2924 C   0  0  0  0  0  0  0  0  0  0  0  0
   50.7316   -4.9838   -5.2847 C   0  0  0  0  0  0  0  0  0  0  0  0
   51.7387   -5.9314   -5.0044 C   0  0  0  0  0  0  0  0  0  0  0  0
   51.8532   -6.4799   -3.7585 C   0  0  0  0  0  0  0  0  0  0  0  0
   52.2827   -6.4742   -0.6447 N   0  0  0  0  0  0  0  0  0  0  0  0
   51.1330   -6.7269   -1.4111 C   0  0  0  0  0  0  0  0  0  0  0  0
   50.2345   -7.4679   -0.9669 O   0  0  0  0  0  0  0  0  0  0  0  0
   53.0722   -7.1470   -0.6667 H   0  0  0  0  0  0  0  0  0  0  0  0
   52.3699   -5.6297   -0.0518 H   0  0  0  0  0  0  0  0  0  0  0  0
   55.1167   -4.6597   -8.3787 N   0  0  0  0  0  0  0  0  0  0  0  0
   55.3848   -5.3204   -7.5908 H   0  0  0  0  0  0  0  0  0  0  0  0
   55.9791   -4.5735   -9.4736 C   0  0  0  0  0  0  0  0  0  0  0  0
   55.6210   -4.1216  -10.7092 C   0  0  0  0  0  0  0  0  0  0  0  0
   56.5216   -4.0790  -11.7959 C   0  0  0  0  0  0  0  0  0  0  0  0
   57.8143   -4.5065  -11.6140 C   0  0  0  0  0  0  0  0  0  0  0  0
   58.7101   -4.4683  -12.6806 O   0  0  0  0  0  0  0  0  0  0  0  0
   58.2204   -4.9716  -10.3772 C   0  0  0  0  0  0  0  0  0  0  0  0
   57.3212   -4.9995   -9.3462 C   0  0  0  0  0  0  0  0  0  0  0  0
   58.7569   -5.2959  -13.2630 H   0  0  0  0  0  0  0  0  0  0  0  0
 16 17  1  0  0  0
 17 18  2  0  0  0
 17 10  1  0  0  0
 10 11  2  0  0  0
 11 12  1  0  0  0
 12 13  2  0  0  0
 13  8  1  0  0  0
  8  1  1  0  0  0
  1  2  2  0  0  0
  2  3  1  0  0  0
  3 21  1  0  0  0
 21 23  1  0  0  0
 23 24  2  0  0  0
 24 25  1  0  0  0
 25 26  2  0  0  0
 26 27  1  0  0  0
 26 28  1  0  0  0
 28 29  2  0  0  0
  3  4  2  0  0  0
  4  5  1  0  0  0
  5  6  2  0  0  0
  6  7  1  0  0  0
 13 14  1  0  0  0
 14 15  2  0  0  0
 15 10  1  0  0  0
  6  1  1  0  0  0
 29 23  1  0  0  0
 16 19  1  0  0  0
 16 20  1  0  0  0
  8  9  1  0  0  0
 21 22  1  0  0  0
 27 30  1  0  0  0
M  END
> <minimizedAffinity>
-9.87071

> <CNNscore>
0.5424377322

> <CNNaffinity>
6.7494683266

> <CNN_VS>
3.6611661911

> <CNNaffinity_variance>
0.0971236080

$$$$
[H]Oc1c([H])c([H])c(N([H])c2nc([H])c(F)c(N([H])c3c([H])c([H])c(C(=O)N([H])[H])c([H])c3[H])n2)c([H])c1[H]


 30 32  0  0  0  0  0  0  0  0999 V2000
   55.3623   -4.3563  -12.4009 C   0  0  0  0  0  0  0  0  0  0  0  0
   54.7047   -4.3375  -11.2533 N   0  0  0  0  0  0  0  0  0  0  0  0
   53.9842   -5.4103  -10.8150 C   0  0  0  0  0  0  0  0  0  0  0  0
   53.9632   -6.5006  -11.5961 N   0  0  0  0  0  0  0  0  0  0  0  0
   54.5988   -6.5897  -12.7583 C   0  0  0  0  0  0  0  0  0  0  0  0
   55.3276   -5.5106  -13.2061 C   0  0  0  0  0  0  0  0  0  0  0  0
   55.9926   -5.5416  -14.3745 F   0  0  0  0  0  0  0  0  0  0  0  0
   56.1029   -3.2545  -12.9004 N   0  0  0  0  0  0  0  0  0  0  0  0
   55.8787   -2.2993  -12.4898 H   0  0  0  0  0  0  0  0  0  0  0  0
   59.1839   -3.4201  -15.7715 C   0  0  0  0  0  0  0  0  0  0  0  0
   57.9845   -2.8577  -16.0590 C   0  0  0  0  0  0  0  0  0  0  0  0
   56.9412   -2.7766  -15.1299 C   0  0  0  0  0  0  0  0  0  0  0  0
   57.1071   -3.2716  -13.8867 C   0  0  0  0  0  0  0  0  0  0  0  0
   58.3469   -3.8620  -13.5623 C   0  0  0  0  0  0  0  0  0  0  0  0
   59.3507   -3.9292  -14.4865 C   0  0  0  0  0  0  0  0  0  0  0  0
   60.5040   -2.4566  -17.6391 N   0  0  0  0  0  0  0  0  0  0  0  0
   60.2745   -3.5075  -16.7356 C   0  0  0  0  0  0  0  0  0  0  0  0
   61.0020   -4.5195  -16.7541 O   0  0  0  0  0  0  0  0  0  0  0  0
   60.1067   -2.5067  -18.5962 H   0  0  0  0  0  0  0  0  0  0  0  0
   61.0625   -1.6242  -17.3792 H   0  0  0  0  0  0  0  0  0  0  0  0
   53.2923   -5.2942   -9.5968 N   0  0  0  0  0  0  0  0  0  0  0  0
   52.2416   -5.1425   -9.6441 H   0  0  0  0  0  0  0  0  0  0  0  0
   53.8806   -5.3632   -8.3323 C   0  0  0  0  0  0  0  0  0  0  0  0
   54.7690   -6.3210   -7.9416 C   0  0  0  0  0  0  0  0  0  0  0  0
   55.3171   -6.3673   -6.6411 C   0  0  0  0  0  0  0  0  0  0  0  0
   54.9496   -5.4140   -5.7230 C   0  0  0  0  0  0  0  0  0  0  0  0
   55.4852   -5.4516   -4.4372 O   0  0  0  0  0  0  0  0  0  0  0  0
   54.0523   -4.4237   -6.0771 C   0  0  0  0  0  0  0  0  0  0  0  0
   53.5403   -4.4093   -7.3459 C   0  0  0  0  0  0  0  0  0  0  0  0
   54.9726   -5.9892   -3.7483 H   0  0  0  0  0  0  0  0  0  0  0  0
 16 17  1  0  0  0
 17 18  2  0  0  0
 17 10  1  0  0  0
 10 11  2  0  0  0
 11 12  1  0  0  0
 12 13  2  0  0  0
 13  8  1  0  0  0
  8  1  1  0  0  0
  1  2  2  0  0  0
  2  3  1  0  0  0
  3 21  1  0  0  0
 21 23  1  0  0  0
 23 24  2  0  0  0
 24 25  1  0  0  0
 25 26  2  0  0  0
 26 27  1  0  0  0
 26 28  1  0  0  0
 28 29  2  0  0  0
  3  4  2  0  0  0
  4  5  1  0  0  0
  5  6  2  0  0  0
  6  7  1  0  0  0
 13 14  1  0  0  0
 14 15  2  0  0  0
 15 10  1  0  0  0
  6  1  1  0  0  0
 29 23  1  0  0  0
 16 19  1  0  0  0
 16 20  1  0  0  0
  8  9  1  0  0  0
 21 22  1  0  0  0
 27 30  1  0  0  0
M  END
> <minimizedAffinity>
16.36853

> <CNNscore>
0.4827043116

> <CNNaffinity>
5.3947229385

> <CNN_VS>
2.6040561199

> <CNNaffinity_variance>
0.5297273397

$$$$
[H]Oc1c([H])c([H])c(N([H])c2nc([H])c(F)c(N([H])c3c([H])c([H])c(C(=O)N([H])[H])c([H])c3[H])n2)c([H])c1[H]


 30 32  0  0  0  0  0  0  0  0999 V2000
   55.8142   -4.9773   -7.2527 C   0  0  0  0  0  0  0  0  0  0  0  0
   54.6338   -4.4867   -7.5928 N   0  0  0  0  0  0  0  0  0  0  0  0
   54.4076   -3.9300   -8.8179 C   0  0  0  0  0  0  0  0  0  0  0  0
   55.4353   -3.8951   -9.6794 N   0  0  0  0  0  0  0  0  0  0  0  0
   56.6454   -4.3681   -9.4060 C   0  0  0  0  0  0  0  0  0  0  0  0
   56.8799   -4.9312   -8.1715 C   0  0  0  0  0  0  0  0  0  0  0  0
   58.0843   -5.4272   -7.8373 F   0  0  0  0  0  0  0  0  0  0  0  0
   56.0939   -5.5428   -5.9823 N   0  0  0  0  0  0  0  0  0  0  0  0
   57.0334   -6.0283   -5.8690 H   0  0  0  0  0  0  0  0  0  0  0  0
   53.5405   -5.6618   -2.6312 C   0  0  0  0  0  0  0  0  0  0  0  0
   54.7474   -5.0472   -2.5741 C   0  0  0  0  0  0  0  0  0  0  0  0
   55.6182   -4.9797   -3.6674 C   0  0  0  0  0  0  0  0  0  0  0  0
   55.2685   -5.5423   -4.8419 C   0  0  0  0  0  0  0  0  0  0  0  0
   54.0168   -6.1879   -4.9274 C   0  0  0  0  0  0  0  0  0  0  0  0
   53.1836   -6.2405   -3.8461 C   0  0  0  0  0  0  0  0  0  0  0  0
   52.9667   -5.1196   -0.2784 N   0  0  0  0  0  0  0  0  0  0  0  0
   52.6292   -5.7353   -1.4951 C   0  0  0  0  0  0  0  0  0  0  0  0
   51.5492   -6.3471   -1.6091 O   0  0  0  0  0  0  0  0  0  0  0  0
   53.4088   -5.6797    0.4748 H   0  0  0  0  0  0  0  0  0  0  0  0
   52.7871   -4.1145   -0.1059 H   0  0  0  0  0  0  0  0  0  0  0  0
   53.1306   -3.4069   -9.0855 N   0  0  0  0  0  0  0  0  0  0  0  0
   52.9413   -3.0605  -10.0721 H   0  0  0  0  0  0  0  0  0  0  0  0
   52.0945   -3.3088   -8.1545 C   0  0  0  0  0  0  0  0  0  0  0  0
   51.2391   -2.2515   -8.0548 C   0  0  0  0  0  0  0  0  0  0  0  0
   50.2224   -2.1832   -7.0773 C   0  0  0  0  0  0  0  0  0  0  0  0
   50.0778   -3.2176   -6.1851 C   0  0  0  0  0  0  0  0  0  0  0  0
   49.0774   -3.1589   -5.2170 O   0  0  0  0  0  0  0  0  0  0  0  0
   50.9228   -4.3097   -6.2510 C   0  0  0  0  0  0  0  0  0  0  0  0
   51.8976   -4.3428   -7.2106 C   0  0  0  0  0  0  0  0  0  0  0  0
   49.3263   -2.7299   -4.3336 H   0  0  0  0  0  0  0  0  0  0  0  0
 16 17  1  0  0  0
 17 18  2  0  0  0
 17 10  1  0  0  0
 10 11  2  0  0  0
 11 12  1  0  0  0
 12 13  2  0  0  0
 13  8  1  0  0  0
  8  1  1  0  0  0
  1  2  2  0  0  0
  2  3  1  0  0  0
  3 21  1  0  0  0
 21 23  1  0  0  0
 23 24  2  0  0  0
 24 25  1  0  0  0
 25 26  2  0  0  0
 26 27  1  0  0  0
 26 28  1  0  0  0
 28 29  2  0  0  0
  3  4  2  0  0  0
  4  5  1  0  0  0
  5  6  2  0  0  0
  6  7  1  0  0  0
 13 14  1  0  0  0
 14 15  2  0  0  0
 15 10  1  0  0  0
  6  1  1  0  0  0
 29 23  1  0  0  0
 16 19  1  0  0  0
 16 20  1  0  0  0
  8  9  1  0  0  0
 21 22  1  0  0  0
 27 30  1  0  0  0
M  END
> <minimizedAffinity>
-9.33272

> <CNNscore>
0.3933858275

> <CNNaffinity>
6.8092193604

> <CNN_VS>
2.6786503792

> <CNNaffinity_variance>
0.0727177709

$$$$
[H]Oc1c([H])c([H])c(N([H])c2nc([H])c(F)c(N([H])c3c([H])c([H])c(C(=O)N([H])[H])c([H])c3[H])n2)c([H])c1[H]


 30 32  0  0  0  0  0  0  0  0999 V2000
   52.8953   -3.6873   -8.0892 C   0  0  0  0  0  0  0  0  0  0  0  0
   53.0305   -4.6905   -7.2378 N   0  0  0  0  0  0  0  0  0  0  0  0
   52.1310   -4.9158   -6.2367 C   0  0  0  0  0  0  0  0  0  0  0  0
   51.0898   -4.0753   -6.1416 N   0  0  0  0  0  0  0  0  0  0  0  0
   50.8912   -3.0490   -6.9601 C   0  0  0  0  0  0  0  0  0  0  0  0
   51.7953   -2.8164   -7.9723 C   0  0  0  0  0  0  0  0  0  0  0  0
   51.6470   -1.7934   -8.8324 F   0  0  0  0  0  0  0  0  0  0  0  0
   53.8202   -3.4077   -9.1276 N   0  0  0  0  0  0  0  0  0  0  0  0
   53.5048   -2.7266   -9.8812 H   0  0  0  0  0  0  0  0  0  0  0  0
   57.6906   -5.0433   -9.4576 C   0  0  0  0  0  0  0  0  0  0  0  0
   57.0235   -4.5901  -10.5472 C   0  0  0  0  0  0  0  0  0  0  0  0
   55.7417   -4.0332  -10.4761 C   0  0  0  0  0  0  0  0  0  0  0  0
   55.1178   -3.9305   -9.2852 C   0  0  0  0  0  0  0  0  0  0  0  0
   55.7912   -4.3947   -8.1355 C   0  0  0  0  0  0  0  0  0  0  0  0
   57.0425   -4.9344   -8.2302 C   0  0  0  0  0  0  0  0  0  0  0  0
   59.6040   -6.2020   -8.3830 N   0  0  0  0  0  0  0  0  0  0  0  0
   59.0262   -5.6245   -9.5258 C   0  0  0  0  0  0  0  0  0  0  0  0
   59.6527   -5.6063  -10.6032 O   0  0  0  0  0  0  0  0  0  0  0  0
   60.2482   -5.6408   -7.7943 H   0  0  0  0  0  0  0  0  0  0  0  0
   59.4066   -7.1799   -8.1052 H   0  0  0  0  0  0  0  0  0  0  0  0
   52.3671   -5.9881   -5.3590 N   0  0  0  0  0  0  0  0  0  0  0  0
   51.5361   -6.5956   -5.0950 H   0  0  0  0  0  0  0  0  0  0  0  0
   53.6086   -6.3144   -4.8093 C   0  0  0  0  0  0  0  0  0  0  0  0
   54.5698   -7.0443   -5.4438 C   0  0  0  0  0  0  0  0  0  0  0  0
   55.8012   -7.3744   -4.8366 C   0  0  0  0  0  0  0  0  0  0  0  0
   56.0540   -6.9481   -3.5554 C   0  0  0  0  0  0  0  0  0  0  0  0
   57.2662   -7.2691   -2.9481 O   0  0  0  0  0  0  0  0  0  0  0  0
   55.1074   -6.2046   -2.8755 C   0  0  0  0  0  0  0  0  0  0  0  0
   53.9247   -5.9033   -3.4941 C   0  0  0  0  0  0  0  0  0  0  0  0
   57.2954   -8.1361   -2.4248 H   0  0  0  0  0  0  0  0  0  0  0  0
 16 17  1  0  0  0
 17 18  2  0  0  0
 17 10  1  0  0  0
 10 11  2  0  0  0
 11 12  1  0  0  0
 12 13  2  0  0  0
 13  8  1  0  0  0
  8  1  1  0  0  0
  1  2  2  0  0  0
  2  3  1  0  0  0
  3 21  1  0  0  0
 21 23  1  0  0  0
 23 24  2  0  0  0
 24 25  1  0  0  0
 25 26  2  0  0  0
 26 27  1  0  0  0
 26 28  1  0  0  0
 28 29  2  0  0  0
  3  4  2  0  0  0
  4  5  1  0  0  0
  5  6  2  0  0  0
  6  7  1  0  0  0
 13 14  1  0  0  0
 14 15  2  0  0  0
 15 10  1  0  0  0
  6  1  1  0  0  0
 29 23  1  0  0  0
 16 19  1  0  0  0
 16 20  1  0  0  0
  8  9  1  0  0  0
 21 22  1  0  0  0
 27 30  1  0  0  0
M  END
> <minimizedAffinity>
-9.00520

> <CNNscore>
0.3909790516

> <CNNaffinity>
6.5815696716

> <CNN_VS>
2.5732557774

> <CNNaffinity_variance>
0.0239304733

$$$$
[H]OC(=O)[C@@]1([H])N(C(=O)[C@@]([H])(N([H])[C@]([H])(C(=O)O[H])C([H])([H])C([H])([H])c2c([H])c([H])c([H])c([H])c2[H])C([H])([H])[H])C([H])([H])c2c([H])c([H])c([H])c([H])c2C1([H])[H]


 33 35  0  0  0  0  0  0  0  0999 V2000
   60.6377   -7.0103   -8.1278 C   0  0  0  0  0  0  0  0  0  0  0  0
   60.4197   -6.1277   -9.3670 C   0  0  0  0  0  0  0  0  0  0  0  0
   61.5835   -6.3331  -10.2339 C   0  0  0  0  0  0  0  0  0  0  0  0
   61.4558   -5.9503  -11.4489 O   0  0  0  0  0  0  0  0  0  0  0  0
   62.8223   -6.9045   -9.8735 N   0  0  0  0  0  0  0  0  0  0  0  0
   63.8424   -7.0516  -10.9377 C   0  0  0  0  0  0  0  0  0  0  0  0
   64.1456   -8.5280  -11.0301 C   0  0  0  0  0  0  0  0  0  0  0  0
   64.1711   -9.2269  -12.2069 C   0  0  0  0  0  0  0  0  0  0  0  0
   64.4304  -10.6069  -12.1846 C   0  0  0  0  0  0  0  0  0  0  0  0
   64.6516  -11.2110  -10.9653 C   0  0  0  0  0  0  0  0  0  0  0  0
   64.6193  -10.4675   -9.7783 C   0  0  0  0  0  0  0  0  0  0  0  0
   64.3666   -9.1145   -9.7904 C   0  0  0  0  0  0  0  0  0  0  0  0
   64.3569   -8.2771   -8.5923 C   0  0  0  0  0  0  0  0  0  0  0  0
   63.1839   -7.3506   -8.5578 C   0  0  0  0  0  0  0  0  0  0  0  0
   63.4387   -6.1993   -7.6436 C   0  0  0  0  0  0  0  0  0  0  0  0
   63.3630   -6.3657   -6.4158 O   0  0  0  0  0  0  0  0  0  0  0  0
   63.7516   -4.9810   -8.1735 O   0  0  0  0  0  0  0  0  0  0  0  0
   64.6283   -4.9033   -8.6863 H   0  0  0  0  0  0  0  0  0  0  0  0
   59.1907   -6.6387   -9.9641 N   0  0  0  0  0  0  0  0  0  0  0  0
   59.3860   -6.7321  -10.9934 H   0  0  0  0  0  0  0  0  0  0  0  0
   58.1560   -5.6406   -9.8225 C   0  0  0  0  0  0  0  0  0  0  0  0
   58.1856   -4.6645  -10.9510 C   0  0  0  0  0  0  0  0  0  0  0  0
   57.4156   -3.6729  -10.9960 O   0  0  0  0  0  0  0  0  0  0  0  0
   59.0708   -4.8064  -12.0107 O   0  0  0  0  0  0  0  0  0  0  0  0
   59.2741   -5.6863  -12.4621 H   0  0  0  0  0  0  0  0  0  0  0  0
   58.2231   -4.9409   -8.4888 C   0  0  0  0  0  0  0  0  0  0  0  0
   57.1693   -5.4451   -7.5312 C   0  0  0  0  0  0  0  0  0  0  0  0
   55.8522   -4.8062   -7.7747 C   0  0  0  0  0  0  0  0  0  0  0  0
   55.7423   -3.5584   -8.3756 C   0  0  0  0  0  0  0  0  0  0  0  0
   54.5362   -2.9372   -8.6130 C   0  0  0  0  0  0  0  0  0  0  0  0
   53.3638   -3.5672   -8.2437 C   0  0  0  0  0  0  0  0  0  0  0  0
   53.4392   -4.8197   -7.6386 C   0  0  0  0  0  0  0  0  0  0  0  0
   54.6612   -5.4107   -7.4168 C   0  0  0  0  0  0  0  0  0  0  0  0
  1  2  1  0  0  0
  2 19  1  0  0  0
 19 21  1  0  0  0
 21 26  1  0  0  0
 26 27  1  0  0  0
 27 28  1  0  0  0
 28 29  2  0  0  0
 29 30  1  0  0  0
 30 31  2  0  0  0
 31 32  1  0  0  0
 32 33  2  0  0  0
 21 22  1  0  0  0
 22 23  2  0  0  0
 22 24  1  0  0  0
  2  3  1  0  0  0
  3  4  2  0  0  0
  3  5  1  0  0  0
  5  6  1  0  0  0
  6  7  1  0  0  0
  7  8  2  0  0  0
  8  9  1  0  0  0
  9 10  2  0  0  0
 10 11  1  0  0  0
 11 12  2  0  0  0
 12 13  1  0  0  0
 13 14  1  0  0  0
 14 15  1  0  0  0
 15 16  2  0  0  0
 15 17  1  0  0  0
 33 28  1  0  0  0
 14  5  1  0  0  0
 12  7  1  0  0  0
 19 20  1  0  0  0
 24 25  1  0  0  0
 17 18  1  0  0  0
M  END
> <minimizedAffinity>
-5.98138

> <CNNscore>
0.2080639154

> <CNNaffinity>
4.8418951035

> <CNN_VS>
1.0074236393

> <CNNaffinity_variance>
0.1671191752

$$$$
[H]OC(=O)[C@@]1([H])N(C(=O)[C@@]([H])(N([H])[C@]([H])(C(=O)O[H])C([H])([H])C([H])([H])c2c([H])c([H])c([H])c([H])c2[H])C([H])([H])[H])C([H])([H])c2c([H])c([H])c([H])c([H])c2C1([H])[H]


 33 35  0  0  0  0  0  0  0  0999 V2000
   60.4154   -8.0381   -9.4655 C   0  0  0  0  0  0  0  0  0  0  0  0
   59.9599   -6.7598  -10.1870 C   0  0  0  0  0  0  0  0  0  0  0  0
   59.4071   -5.8754   -9.1573 C   0  0  0  0  0  0  0  0  0  0  0  0
   60.0472   -5.8311   -8.0494 O   0  0  0  0  0  0  0  0  0  0  0  0
   58.2511   -5.0724   -9.2569 N   0  0  0  0  0  0  0  0  0  0  0  0
   57.8579   -4.2895   -8.0622 C   0  0  0  0  0  0  0  0  0  0  0  0
   56.4729   -4.7598   -7.6870 C   0  0  0  0  0  0  0  0  0  0  0  0
   56.1094   -5.1170   -6.4164 C   0  0  0  0  0  0  0  0  0  0  0  0
   54.8037   -5.5744   -6.1749 C   0  0  0  0  0  0  0  0  0  0  0  0
   53.9292   -5.6470   -7.2381 C   0  0  0  0  0  0  0  0  0  0  0  0
   54.3320   -5.2733   -8.5269 C   0  0  0  0  0  0  0  0  0  0  0  0
   55.6092   -4.8232   -8.7731 C   0  0  0  0  0  0  0  0  0  0  0  0
   56.0788   -4.3832  -10.0855 C   0  0  0  0  0  0  0  0  0  0  0  0
   57.4239   -4.9420  -10.4229 C   0  0  0  0  0  0  0  0  0  0  0  0
   58.0934   -4.1249  -11.4765 C   0  0  0  0  0  0  0  0  0  0  0  0
   58.9965   -4.6318  -12.1610 O   0  0  0  0  0  0  0  0  0  0  0  0
   57.7007   -2.8323  -11.6708 O   0  0  0  0  0  0  0  0  0  0  0  0
   56.7511   -2.6752  -12.0043 H   0  0  0  0  0  0  0  0  0  0  0  0
   61.1808   -6.2224  -10.7775 N   0  0  0  0  0  0  0  0  0  0  0  0
   61.0764   -6.3420  -11.8173 H   0  0  0  0  0  0  0  0  0  0  0  0
   62.2951   -7.0467  -10.3704 C   0  0  0  0  0  0  0  0  0  0  0  0
   63.2376   -6.2908   -9.4943 C   0  0  0  0  0  0  0  0  0  0  0  0
   63.0107   -6.1065   -8.2725 O   0  0  0  0  0  0  0  0  0  0  0  0
   64.4170   -5.7527   -9.9905 O   0  0  0  0  0  0  0  0  0  0  0  0
   64.4893   -5.2718  -10.8753 H   0  0  0  0  0  0  0  0  0  0  0  0
   63.0096   -7.6556  -11.5500 C   0  0  0  0  0  0  0  0  0  0  0  0
   62.5903   -7.0212  -12.8552 C   0  0  0  0  0  0  0  0  0  0  0  0
   63.6858   -6.2203  -13.4558 C   0  0  0  0  0  0  0  0  0  0  0  0
   63.7249   -4.8356  -13.3501 C   0  0  0  0  0  0  0  0  0  0  0  0
   64.7252   -4.0634  -13.8980 C   0  0  0  0  0  0  0  0  0  0  0  0
   65.7514   -4.6743  -14.5918 C   0  0  0  0  0  0  0  0  0  0  0  0
   65.7420   -6.0618  -14.7161 C   0  0  0  0  0  0  0  0  0  0  0  0
   64.7268   -6.8017  -14.1559 C   0  0  0  0  0  0  0  0  0  0  0  0
  1  2  1  0  0  0
  2 19  1  0  0  0
 19 21  1  0  0  0
 21 26  1  0  0  0
 26 27  1  0  0  0
 27 28  1  0  0  0
 28 29  2  0  0  0
 29 30  1  0  0  0
 30 31  2  0  0  0
 31 32  1  0  0  0
 32 33  2  0  0  0
 21 22  1  0  0  0
 22 23  2  0  0  0
 22 24  1  0  0  0
  2  3  1  0  0  0
  3  4  2  0  0  0
  3  5  1  0  0  0
  5  6  1  0  0  0
  6  7  1  0  0  0
  7  8  2  0  0  0
  8  9  1  0  0  0
  9 10  2  0  0  0
 10 11  1  0  0  0
 11 12  2  0  0  0
 12 13  1  0  0  0
 13 14  1  0  0  0
 14 15  1  0  0  0
 15 16  2  0  0  0
 15 17  1  0  0  0
 33 28  1  0  0  0
 14  5  1  0  0  0
 12  7  1  0  0  0
 19 20  1  0  0  0
 24 25  1  0  0  0
 17 18  1  0  0  0
M  END
> <minimizedAffinity>
-4.66828

> <CNNscore>
0.1511250883

> <CNNaffinity>
4.7417907715

> <CNN_VS>
0.7166035771

> <CNNaffinity_variance>
0.1556514800

$$$$
[H]OC(=O)[C@@]1([H])N(C(=O)[C@@]([H])(N([H])[C@]([H])(C(=O)O[H])C([H])([H])C([H])([H])c2c([H])c([H])c([H])c([H])c2[H])C([H])([H])[H])C([H])([H])c2c([H])c([H])c([H])c([H])c2C1([H])[H]


 33 35  0  0  0  0  0  0  0  0999 V2000
   58.6653   -7.3596   -3.6114 C   0  0  0  0  0  0  0  0  0  0  0  0
   58.0291   -8.2849   -2.5621 C   0  0  0  0  0  0  0  0  0  0  0  0
   58.9658   -8.3435   -1.4365 C   0  0  0  0  0  0  0  0  0  0  0  0
   58.7066   -7.5739   -0.4467 O   0  0  0  0  0  0  0  0  0  0  0  0
   60.1163   -9.1533   -1.3287 N   0  0  0  0  0  0  0  0  0  0  0  0
   60.9418   -9.0085   -0.1070 C   0  0  0  0  0  0  0  0  0  0  0  0
   62.3143   -8.5853   -0.5733 C   0  0  0  0  0  0  0  0  0  0  0  0
   63.0093   -7.5350   -0.0368 C   0  0  0  0  0  0  0  0  0  0  0  0
   64.2671   -7.1988   -0.5633 C   0  0  0  0  0  0  0  0  0  0  0  0
   64.7585   -7.9474   -1.6114 C   0  0  0  0  0  0  0  0  0  0  0  0
   64.0227   -9.0170   -2.1379 C   0  0  0  0  0  0  0  0  0  0  0  0
   62.7895   -9.3544   -1.6280 C   0  0  0  0  0  0  0  0  0  0  0  0
   61.9905  -10.4807   -2.1071 C   0  0  0  0  0  0  0  0  0  0  0  0
   60.5538  -10.1148   -2.3007 C   0  0  0  0  0  0  0  0  0  0  0  0
   59.6870  -11.3292   -2.2934 C   0  0  0  0  0  0  0  0  0  0  0  0
   59.6868  -12.0857   -3.2776 O   0  0  0  0  0  0  0  0  0  0  0  0
   58.9084  -11.5887   -1.2028 O   0  0  0  0  0  0  0  0  0  0  0  0
   59.3830  -11.7936   -0.3251 H   0  0  0  0  0  0  0  0  0  0  0  0
   56.7793   -7.6225   -2.2051 N   0  0  0  0  0  0  0  0  0  0  0  0
   56.0301   -8.3567   -2.2828 H   0  0  0  0  0  0  0  0  0  0  0  0
   56.4860   -6.6173   -3.2003 C   0  0  0  0  0  0  0  0  0  0  0  0
   56.4687   -5.2502   -2.6019 C   0  0  0  0  0  0  0  0  0  0  0  0
   57.0510   -4.9879   -1.5200 O   0  0  0  0  0  0  0  0  0  0  0  0
   55.8049   -4.1971   -3.2159 O   0  0  0  0  0  0  0  0  0  0  0  0
   54.8908   -4.2755   -3.6373 H   0  0  0  0  0  0  0  0  0  0  0  0
   55.2054   -6.9096   -3.9401 C   0  0  0  0  0  0  0  0  0  0  0  0
   55.4545   -7.2512   -5.3902 C   0  0  0  0  0  0  0  0  0  0  0  0
   55.1024   -6.1249   -6.2901 C   0  0  0  0  0  0  0  0  0  0  0  0
   56.0473   -5.1950   -6.7054 C   0  0  0  0  0  0  0  0  0  0  0  0
   55.7527   -4.1375   -7.5372 C   0  0  0  0  0  0  0  0  0  0  0  0
   54.4597   -3.9730   -7.9941 C   0  0  0  0  0  0  0  0  0  0  0  0
   53.4879   -4.8884   -7.5962 C   0  0  0  0  0  0  0  0  0  0  0  0
   53.8178   -5.9330   -6.7644 C   0  0  0  0  0  0  0  0  0  0  0  0
  1  2  1  0  0  0
  2 19  1  0  0  0
 19 21  1  0  0  0
 21 26  1  0  0  0
 26 27  1  0  0  0
 27 28  1  0  0  0
 28 29  2  0  0  0
 29 30  1  0  0  0
 30 31  2  0  0  0
 31 32  1  0  0  0
 32 33  2  0  0  0
 21 22  1  0  0  0
 22 23  2  0  0  0
 22 24  1  0  0  0
  2  3  1  0  0  0
  3  4  2  0  0  0
  3  5  1  0  0  0
  5  6  1  0  0  0
  6  7  1  0  0  0
  7  8  2  0  0  0
  8  9  1  0  0  0
  9 10  2  0  0  0
 10 11  1  0  0  0
 11 12  2  0  0  0
 12 13  1  0  0  0
 13 14  1  0  0  0
 14 15  1  0  0  0
 15 16  2  0  0  0
 15 17  1  0  0  0
 33 28  1  0  0  0
 14  5  1  0  0  0
 12  7  1  0  0  0
 19 20  1  0  0  0
 24 25  1  0  0  0
 17 18  1  0  0  0
M  END
> <minimizedAffinity>
-5.79539

> <CNNscore>
0.1496207118

> <CNNaffinity>
4.4651765823

> <CNN_VS>
0.6680828929

> <CNNaffinity_variance>
0.0953558832

$$$$
[H]OC(=O)[C@@]1([H])N(C(=O)[C@@]([H])(N([H])[C@]([H])(C(=O)O[H])C([H])([H])C([H])([H])c2c([H])c([H])c([H])c([H])c2[H])C([H])([H])[H])C([H])([H])c2c([H])c([H])c([H])c([H])c2C1([H])[H]


 33 35  0  0  0  0  0  0  0  0999 V2000
   52.0146   -6.4189   -7.5974 C   0  0  0  0  0  0  0  0  0  0  0  0
   52.8904   -5.5946   -6.6405 C   0  0  0  0  0  0  0  0  0  0  0  0
   53.4952   -4.5286   -7.4440 C   0  0  0  0  0  0  0  0  0  0  0  0
   52.6818   -3.7105   -7.9990 O   0  0  0  0  0  0  0  0  0  0  0  0
   54.8709   -4.3098   -7.6694 N   0  0  0  0  0  0  0  0  0  0  0  0
   55.2472   -3.1871   -8.5599 C   0  0  0  0  0  0  0  0  0  0  0  0
   56.0188   -3.7978   -9.7052 C   0  0  0  0  0  0  0  0  0  0  0  0
   55.7649   -3.5275  -11.0229 C   0  0  0  0  0  0  0  0  0  0  0  0
   56.5174   -4.1732  -12.0175 C   0  0  0  0  0  0  0  0  0  0  0  0
   57.4932   -5.0640  -11.6240 C   0  0  0  0  0  0  0  0  0  0  0  0
   57.7291   -5.3185  -10.2667 C   0  0  0  0  0  0  0  0  0  0  0  0
   56.9972   -4.6900   -9.2850 C   0  0  0  0  0  0  0  0  0  0  0  0
   57.2198   -4.8833   -7.8533 C   0  0  0  0  0  0  0  0  0  0  0  0
   55.9419   -5.0791   -7.1023 C   0  0  0  0  0  0  0  0  0  0  0  0
   56.1218   -4.7756   -5.6526 C   0  0  0  0  0  0  0  0  0  0  0  0
   55.9936   -3.6075   -5.2525 O   0  0  0  0  0  0  0  0  0  0  0  0
   56.4242   -5.7888   -4.7895 O   0  0  0  0  0  0  0  0  0  0  0  0
   55.7249   -6.5177   -4.6578 H   0  0  0  0  0  0  0  0  0  0  0  0
   51.9542   -5.0745   -5.6499 N   0  0  0  0  0  0  0  0  0  0  0  0
   52.3862   -4.1897   -5.2799 H   0  0  0  0  0  0  0  0  0  0  0  0
   51.8856   -6.0018   -4.5443 C   0  0  0  0  0  0  0  0  0  0  0  0
   50.6529   -5.7863   -3.7311 C   0  0  0  0  0  0  0  0  0  0  0  0
   49.6212   -5.2544   -4.2115 O   0  0  0  0  0  0  0  0  0  0  0  0
   50.5872   -6.1659   -2.3976 O   0  0  0  0  0  0  0  0  0  0  0  0
   51.3312   -6.0175   -1.7314 H   0  0  0  0  0  0  0  0  0  0  0  0
   53.1249   -5.9535   -3.6872 C   0  0  0  0  0  0  0  0  0  0  0  0
   53.7381   -7.3212   -3.5006 C   0  0  0  0  0  0  0  0  0  0  0  0
   54.6255   -7.3700   -2.3121 C   0  0  0  0  0  0  0  0  0  0  0  0
   55.8173   -8.0840   -2.3156 C   0  0  0  0  0  0  0  0  0  0  0  0
   56.6613   -8.1516   -1.2293 C   0  0  0  0  0  0  0  0  0  0  0  0
   56.3268   -7.4842   -0.0672 C   0  0  0  0  0  0  0  0  0  0  0  0
   55.1381   -6.7588   -0.0307 C   0  0  0  0  0  0  0  0  0  0  0  0
   54.3190   -6.7130   -1.1347 C   0  0  0  0  0  0  0  0  0  0  0  0
  1  2  1  0  0  0
  2 19  1  0  0  0
 19 21  1  0  0  0
 21 26  1  0  0  0
 26 27  1  0  0  0
 27 28  1  0  0  0
 28 29  2  0  0  0
 29 30  1  0  0  0
 30 31  2  0  0  0
 31 32  1  0  0  0
 32 33  2  0  0  0
 21 22  1  0  0  0
 22 23  2  0  0  0
 22 24  1  0  0  0
  2  3  1  0  0  0
  3  4  2  0  0  0
  3  5  1  0  0  0
  5  6  1  0  0  0
  6  7  1  0  0  0
  7  8  2  0  0  0
  8  9  1  0  0  0
  9 10  2  0  0  0
 10 11  1  0  0  0
 11 12  2  0  0  0
 12 13  1  0  0  0
 13 14  1  0  0  0
 14 15  1  0  0  0
 15 16  2  0  0  0
 15 17  1  0  0  0
 33 28  1  0  0  0
 14  5  1  0  0  0
 12  7  1  0  0  0
 19 20  1  0  0  0
 24 25  1  0  0  0
 17 18  1  0  0  0
M  END
> <minimizedAffinity>
-6.93034

> <CNNscore>
0.1481052637

> <CNNaffinity>
5.6579155922

> <CNN_VS>
0.8379670978

> <CNNaffinity_variance>
0.0850287303

$$$$
[H]OC(=O)[C@@]1([H])N(C(=O)[C@@]([H])(N([H])[C@]([H])(C(=O)O[H])C([H])([H])C([H])([H])c2c([H])c([H])c([H])c([H])c2[H])C([H])([H])[H])C([H])([H])c2c([H])c([H])c([H])c([H])c2C1([H])[H]


 33 35  0  0  0  0  0  0  0  0999 V2000
   60.1761   -8.0583   -9.4885 C   0  0  0  0  0  0  0  0  0  0  0  0
   59.8165   -6.7399  -10.1917 C   0  0  0  0  0  0  0  0  0  0  0  0
   59.2889   -5.8466   -9.1565 C   0  0  0  0  0  0  0  0  0  0  0  0
   59.9524   -5.7976   -8.0626 O   0  0  0  0  0  0  0  0  0  0  0  0
   58.1341   -5.0398   -9.2371 N   0  0  0  0  0  0  0  0  0  0  0  0
   57.7691   -4.2476   -8.0396 C   0  0  0  0  0  0  0  0  0  0  0  0
   56.3906   -4.7099   -7.6322 C   0  0  0  0  0  0  0  0  0  0  0  0
   56.0525   -5.0573   -6.3520 C   0  0  0  0  0  0  0  0  0  0  0  0
   54.7505   -5.5080   -6.0800 C   0  0  0  0  0  0  0  0  0  0  0  0
   53.8536   -5.5840   -7.1241 C   0  0  0  0  0  0  0  0  0  0  0  0
   54.2305   -5.2204   -8.4235 C   0  0  0  0  0  0  0  0  0  0  0  0
   55.5039   -4.7770   -8.6995 C   0  0  0  0  0  0  0  0  0  0  0  0
   55.9475   -4.3474  -10.0244 C   0  0  0  0  0  0  0  0  0  0  0  0
   57.2831   -4.9137  -10.3863 C   0  0  0  0  0  0  0  0  0  0  0  0
   57.9333   -4.1062  -11.4592 C   0  0  0  0  0  0  0  0  0  0  0  0
   58.7999   -4.6296  -12.1776 O   0  0  0  0  0  0  0  0  0  0  0  0
   57.5635   -2.8039  -11.6333 O   0  0  0  0  0  0  0  0  0  0  0  0
   56.6066   -2.6237  -11.9322 H   0  0  0  0  0  0  0  0  0  0  0  0
   61.0826   -6.2635  -10.7378 N   0  0  0  0  0  0  0  0  0  0  0  0
   61.0094   -6.3783  -11.7808 H   0  0  0  0  0  0  0  0  0  0  0  0
   62.1398   -7.1415  -10.2925 C   0  0  0  0  0  0  0  0  0  0  0  0
   63.0915   -6.4302   -9.3893 C   0  0  0  0  0  0  0  0  0  0  0  0
   64.0492   -5.7486   -9.8327 O   0  0  0  0  0  0  0  0  0  0  0  0
   62.9627   -6.4878   -8.0085 O   0  0  0  0  0  0  0  0  0  0  0  0
   62.7462   -7.3307   -7.4967 H   0  0  0  0  0  0  0  0  0  0  0  0
   62.8593   -7.7919  -11.4466 C   0  0  0  0  0  0  0  0  0  0  0  0
   63.8800   -8.8031  -10.9801 C   0  0  0  0  0  0  0  0  0  0  0  0
   63.2374  -10.0382  -10.4665 C   0  0  0  0  0  0  0  0  0  0  0  0
   63.1661  -10.3169   -9.1074 C   0  0  0  0  0  0  0  0  0  0  0  0
   62.5796  -11.4546   -8.5987 C   0  0  0  0  0  0  0  0  0  0  0  0
   62.0281  -12.3791   -9.4641 C   0  0  0  0  0  0  0  0  0  0  0  0
   62.0830  -12.1296  -10.8335 C   0  0  0  0  0  0  0  0  0  0  0  0
   62.6766  -10.9825  -11.3066 C   0  0  0  0  0  0  0  0  0  0  0  0
  1  2  1  0  0  0
  2 19  1  0  0  0
 19 21  1  0  0  0
 21 26  1  0  0  0
 26 27  1  0  0  0
 27 28  1  0  0  0
 28 29  2  0  0  0
 29 30  1  0  0  0
 30 31  2  0  0  0
 31 32  1  0  0  0
 32 33  2  0  0  0
 21 22  1  0  0  0
 22 23  2  0  0  0
 22 24  1  0  0  0
  2  3  1  0  0  0
  3  4  2  0  0  0
  3  5  1  0  0  0
  5  6  1  0  0  0
  6  7  1  0  0  0
  7  8  2  0  0  0
  8  9  1  0  0  0
  9 10  2  0  0  0
 10 11  1  0  0  0
 11 12  2  0  0  0
 12 13  1  0  0  0
 13 14  1  0  0  0
 14 15  1  0  0  0
 15 16  2  0  0  0
 15 17  1  0  0  0
 33 28  1  0  0  0
 14  5  1  0  0  0
 12  7  1  0  0  0
 19 20  1  0  0  0
 24 25  1  0  0  0
 17 18  1  0  0  0
M  END
> <minimizedAffinity>
-5.45117

> <CNNscore>
0.1472632587

> <CNNaffinity>
4.7694005966

> <CNN_VS>
0.7023574710

> <CNNaffinity_variance>
0.0497389287

$$$$
[H]OC(=O)[C@@]1([H])N(C(=O)[C@@]([H])(N([H])[C@]([H])(C(=O)O[H])C([H])([H])C([H])([H])c2c([H])c([H])c([H])c([H])c2[H])C([H])([H])[H])C([H])([H])c2c([H])c([H])c([H])c([H])c2C1([H])[H]


 33 35  0  0  0  0  0  0  0  0999 V2000
   54.7811   -2.4189   -9.0045 C   0  0  0  0  0  0  0  0  0  0  0  0
   54.2781   -3.5047   -8.0401 C   0  0  0  0  0  0  0  0  0  0  0  0
   52.8180   -3.5281   -8.1649 C   0  0  0  0  0  0  0  0  0  0  0  0
   52.3118   -2.7146   -9.0140 O   0  0  0  0  0  0  0  0  0  0  0  0
   51.9165   -4.3472   -7.4526 N   0  0  0  0  0  0  0  0  0  0  0  0
   50.4704   -4.1619   -7.7161 C   0  0  0  0  0  0  0  0  0  0  0  0
   49.8473   -3.7760   -6.3959 C   0  0  0  0  0  0  0  0  0  0  0  0
   48.9994   -2.7131   -6.2370 C   0  0  0  0  0  0  0  0  0  0  0  0
   48.4979   -2.4151   -4.9596 C   0  0  0  0  0  0  0  0  0  0  0  0
   48.8831   -3.2130   -3.9035 C   0  0  0  0  0  0  0  0  0  0  0  0
   49.7521   -4.2943   -4.0991 C   0  0  0  0  0  0  0  0  0  0  0  0
   50.2482   -4.5944   -5.3474 C   0  0  0  0  0  0  0  0  0  0  0  0
   51.1267   -5.7296   -5.6234 C   0  0  0  0  0  0  0  0  0  0  0  0
   52.2810   -5.3539   -6.4963 C   0  0  0  0  0  0  0  0  0  0  0  0
   52.8590   -6.5559   -7.1650 C   0  0  0  0  0  0  0  0  0  0  0  0
   52.2595   -7.0698   -8.1228 O   0  0  0  0  0  0  0  0  0  0  0  0
   54.0393   -7.0706   -6.7121 O   0  0  0  0  0  0  0  0  0  0  0  0
   54.8709   -6.4896   -6.8042 H   0  0  0  0  0  0  0  0  0  0  0  0
   54.8926   -4.7349   -8.5272 N   0  0  0  0  0  0  0  0  0  0  0  0
   54.2611   -5.5166   -8.2167 H   0  0  0  0  0  0  0  0  0  0  0  0
   56.1554   -4.9222   -7.8511 C   0  0  0  0  0  0  0  0  0  0  0  0
   56.1201   -4.3585   -6.4697 C   0  0  0  0  0  0  0  0  0  0  0  0
   55.5776   -4.9675   -5.5142 O   0  0  0  0  0  0  0  0  0  0  0  0
   56.6885   -3.1274   -6.1731 O   0  0  0  0  0  0  0  0  0  0  0  0
   56.5994   -2.3093   -6.7579 H   0  0  0  0  0  0  0  0  0  0  0  0
   57.3100   -4.3637   -8.6433 C   0  0  0  0  0  0  0  0  0  0  0  0
   57.7710   -5.3164   -9.7210 C   0  0  0  0  0  0  0  0  0  0  0  0
   57.6915   -4.7029  -11.0700 C   0  0  0  0  0  0  0  0  0  0  0  0
   58.8289   -4.4294  -11.8193 C   0  0  0  0  0  0  0  0  0  0  0  0
   58.7896   -3.8585  -13.0721 C   0  0  0  0  0  0  0  0  0  0  0  0
   57.5696   -3.5330  -13.6319 C   0  0  0  0  0  0  0  0  0  0  0  0
   56.4095   -3.7944  -12.9063 C   0  0  0  0  0  0  0  0  0  0  0  0
   56.4860   -4.3657  -11.6575 C   0  0  0  0  0  0  0  0  0  0  0  0
  1  2  1  0  0  0
  2 19  1  0  0  0
 19 21  1  0  0  0
 21 26  1  0  0  0
 26 27  1  0  0  0
 27 28  1  0  0  0
 28 29  2  0  0  0
 29 30  1  0  0  0
 30 31  2  0  0  0
 31 32  1  0  0  0
 32 33  2  0  0  0
 21 22  1  0  0  0
 22 23  2  0  0  0
 22 24  1  0  0  0
  2  3  1  0  0  0
  3  4  2  0  0  0
  3  5  1  0  0  0
  5  6  1  0  0  0
  6  7  1  0  0  0
  7  8  2  0  0  0
  8  9  1  0  0  0
  9 10  2  0  0  0
 10 11  1  0  0  0
 11 12  2  0  0  0
 12 13  1  0  0  0
 13 14  1  0  0  0
 14 15  1  0  0  0
 15 16  2  0  0  0
 15 17  1  0  0  0
 33 28  1  0  0  0
 14  5  1  0  0  0
 12  7  1  0  0  0
 19 20  1  0  0  0
 24 25  1  0  0  0
 17 18  1  0  0  0
M  END
> <minimizedAffinity>
-8.40570

> <CNNscore>
0.1432731599

> <CNNaffinity>
5.9103746414

> <CNN_VS>
0.8467980623

> <CNNaffinity_variance>
0.1409313977

$$$$
[H]OC(=O)[C@@]1([H])N(C(=O)[C@@]([H])(N([H])[C@]([H])(C(=O)O[H])C([H])([H])C([H])([H])c2c([H])c([H])c([H])c([H])c2[H])C([H])([H])[H])C([H])([H])c2c([H])c([H])c([H])c([H])c2C1([H])[H]


 33 35  0  0  0  0  0  0  0  0999 V2000
   54.8780   -2.1557   -8.7506 C   0  0  0  0  0  0  0  0  0  0  0  0
   54.4630   -3.5046   -8.1418 C   0  0  0  0  0  0  0  0  0  0  0  0
   53.0050   -3.5862   -8.2663 C   0  0  0  0  0  0  0  0  0  0  0  0
   52.4711   -2.8262   -9.1474 O   0  0  0  0  0  0  0  0  0  0  0  0
   52.1326   -4.4088   -7.5224 N   0  0  0  0  0  0  0  0  0  0  0  0
   50.6813   -4.2871   -7.7938 C   0  0  0  0  0  0  0  0  0  0  0  0
   50.0419   -3.8720   -6.4904 C   0  0  0  0  0  0  0  0  0  0  0  0
   49.1554   -2.8353   -6.3743 C   0  0  0  0  0  0  0  0  0  0  0  0
   48.6409   -2.5053   -5.1100 C   0  0  0  0  0  0  0  0  0  0  0  0
   49.0528   -3.2460   -4.0228 C   0  0  0  0  0  0  0  0  0  0  0  0
   49.9612   -4.3018   -4.1748 C   0  0  0  0  0  0  0  0  0  0  0  0
   50.4703   -4.6329   -5.4100 C   0  0  0  0  0  0  0  0  0  0  0  0
   51.3903   -5.7453   -5.6401 C   0  0  0  0  0  0  0  0  0  0  0  0
   52.5318   -5.3627   -6.5267 C   0  0  0  0  0  0  0  0  0  0  0  0
   53.1546   -6.5684   -7.1468 C   0  0  0  0  0  0  0  0  0  0  0  0
   52.5011   -7.2459   -7.9559 O   0  0  0  0  0  0  0  0  0  0  0  0
   54.4345   -6.9062   -6.8139 O   0  0  0  0  0  0  0  0  0  0  0  0
   55.1748   -6.2584   -7.0781 H   0  0  0  0  0  0  0  0  0  0  0  0
   55.1430   -4.4983   -8.9654 N   0  0  0  0  0  0  0  0  0  0  0  0
   55.3525   -5.3082   -8.3279 H   0  0  0  0  0  0  0  0  0  0  0  0
   56.4142   -3.9585   -9.3893 C   0  0  0  0  0  0  0  0  0  0  0  0
   56.4609   -3.7795  -10.8702 C   0  0  0  0  0  0  0  0  0  0  0  0
   55.7616   -4.4745  -11.6487 O   0  0  0  0  0  0  0  0  0  0  0  0
   57.2837   -2.8306  -11.4612 O   0  0  0  0  0  0  0  0  0  0  0  0
   58.2368   -2.6554  -11.1780 H   0  0  0  0  0  0  0  0  0  0  0  0
   57.5733   -4.7885   -8.8992 C   0  0  0  0  0  0  0  0  0  0  0  0
   58.2229   -5.5699  -10.0168 C   0  0  0  0  0  0  0  0  0  0  0  0
   59.6092   -5.9735   -9.6739 C   0  0  0  0  0  0  0  0  0  0  0  0
   60.6050   -6.0686  -10.6379 C   0  0  0  0  0  0  0  0  0  0  0  0
   61.8996   -6.4427  -10.3533 C   0  0  0  0  0  0  0  0  0  0  0  0
   62.2487   -6.7432   -9.0511 C   0  0  0  0  0  0  0  0  0  0  0  0
   61.2734   -6.6577   -8.0602 C   0  0  0  0  0  0  0  0  0  0  0  0
   59.9900   -6.2805   -8.3805 C   0  0  0  0  0  0  0  0  0  0  0  0
  1  2  1  0  0  0
  2 19  1  0  0  0
 19 21  1  0  0  0
 21 26  1  0  0  0
 26 27  1  0  0  0
 27 28  1  0  0  0
 28 29  2  0  0  0
 29 30  1  0  0  0
 30 31  2  0  0  0
 31 32  1  0  0  0
 32 33  2  0  0  0
 21 22  1  0  0  0
 22 23  2  0  0  0
 22 24  1  0  0  0
  2  3  1  0  0  0
  3  4  2  0  0  0
  3  5  1  0  0  0
  5  6  1  0  0  0
  6  7  1  0  0  0
  7  8  2  0  0  0
  8  9  1  0  0  0
  9 10  2  0  0  0
 10 11  1  0  0  0
 11 12  2  0  0  0
 12 13  1  0  0  0
 13 14  1  0  0  0
 14 15  1  0  0  0
 15 16  2  0  0  0
 15 17  1  0  0  0
 33 28  1  0  0  0
 14  5  1  0  0  0
 12  7  1  0  0  0
 19 20  1  0  0  0
 24 25  1  0  0  0
 17 18  1  0  0  0
M  END
> <minimizedAffinity>
-7.56478

> <CNNscore>
0.1345567852

> <CNNaffinity>
5.4526472092

> <CNN_VS>
0.7336906791

> <CNNaffinity_variance>
0.1307261884

$$$$
[H]OC(=O)[C@@]1([H])N(C(=O)[C@@]([H])(N([H])[C@]([H])(C(=O)O[H])C([H])([H])C([H])([H])c2c([H])c([H])c([H])c([H])c2[H])C([H])([H])[H])C([H])([H])c2c([H])c([H])c([H])c([H])c2C1([H])[H]


 33 35  0  0  0  0  0  0  0  0999 V2000
   54.9360   -7.8135   -4.6286 C   0  0  0  0  0  0  0  0  0  0  0  0
   54.6480   -6.4536   -5.2842 C   0  0  0  0  0  0  0  0  0  0  0  0
   53.3069   -6.5487   -5.8675 C   0  0  0  0  0  0  0  0  0  0  0  0
   53.2458   -6.9718   -7.0743 O   0  0  0  0  0  0  0  0  0  0  0  0
   52.0832   -6.2252   -5.2438 N   0  0  0  0  0  0  0  0  0  0  0  0
   50.8482   -6.3597   -6.0512 C   0  0  0  0  0  0  0  0  0  0  0  0
   50.2204   -4.9871   -6.0933 C   0  0  0  0  0  0  0  0  0  0  0  0
   49.7881   -4.3835   -7.2434 C   0  0  0  0  0  0  0  0  0  0  0  0
   49.2478   -3.0887   -7.1825 C   0  0  0  0  0  0  0  0  0  0  0  0
   49.1729   -2.4687   -5.9535 C   0  0  0  0  0  0  0  0  0  0  0  0
   49.6236   -3.1137   -4.7943 C   0  0  0  0  0  0  0  0  0  0  0  0
   50.1539   -4.3828   -4.8442 C   0  0  0  0  0  0  0  0  0  0  0  0
   50.6057   -5.1235   -3.6678 C   0  0  0  0  0  0  0  0  0  0  0  0
   51.9298   -5.7825   -3.8869 C   0  0  0  0  0  0  0  0  0  0  0  0
   52.1359   -6.9022   -2.9226 C   0  0  0  0  0  0  0  0  0  0  0  0
   51.3534   -7.8659   -2.9289 O   0  0  0  0  0  0  0  0  0  0  0  0
   53.1831   -6.8483   -2.0488 O   0  0  0  0  0  0  0  0  0  0  0  0
   54.1230   -6.8733   -2.4405 H   0  0  0  0  0  0  0  0  0  0  0  0
   54.7028   -5.5006   -4.1810 N   0  0  0  0  0  0  0  0  0  0  0  0
   54.0013   -4.7513   -4.4106 H   0  0  0  0  0  0  0  0  0  0  0  0
   56.0028   -4.8707   -4.1759 C   0  0  0  0  0  0  0  0  0  0  0  0
   56.3725   -4.4002   -2.8087 C   0  0  0  0  0  0  0  0  0  0  0  0
   57.3848   -3.6862   -2.5998 O   0  0  0  0  0  0  0  0  0  0  0  0
   55.6107   -4.7306   -1.6965 O   0  0  0  0  0  0  0  0  0  0  0  0
   55.2273   -5.6493   -1.5279 H   0  0  0  0  0  0  0  0  0  0  0  0
   56.0949   -3.7545   -5.1849 C   0  0  0  0  0  0  0  0  0  0  0  0
   56.8834   -4.1600   -6.4078 C   0  0  0  0  0  0  0  0  0  0  0  0
   56.0652   -4.0787   -7.6432 C   0  0  0  0  0  0  0  0  0  0  0  0
   56.5898   -4.3878   -8.8919 C   0  0  0  0  0  0  0  0  0  0  0  0
   55.8585   -4.3198  -10.0571 C   0  0  0  0  0  0  0  0  0  0  0  0
   54.5353   -3.9271  -10.0062 C   0  0  0  0  0  0  0  0  0  0  0  0
   53.9786   -3.6100   -8.7693 C   0  0  0  0  0  0  0  0  0  0  0  0
   54.7385   -3.6891   -7.6255 C   0  0  0  0  0  0  0  0  0  0  0  0
  1  2  1  0  0  0
  2 19  1  0  0  0
 19 21  1  0  0  0
 21 26  1  0  0  0
 26 27  1  0  0  0
 27 28  1  0  0  0
 28 29  2  0  0  0
 29 30  1  0  0  0
 30 31  2  0  0  0
 31 32  1  0  0  0
 32 33  2  0  0  0
 21 22  1  0  0  0
 22 23  2  0  0  0
 22 24  1  0  0  0
  2  3  1  0  0  0
  3  4  2  0  0  0
  3  5  1  0  0  0
  5  6  1  0  0  0
  6  7  1  0  0  0
  7  8  2  0  0  0
  8  9  1  0  0  0
  9 10  2  0  0  0
 10 11  1  0  0  0
 11 12  2  0  0  0
 12 13  1  0  0  0
 13 14  1  0  0  0
 14 15  1  0  0  0
 15 16  2  0  0  0
 15 17  1  0  0  0
 33 28  1  0  0  0
 14  5  1  0  0  0
 12  7  1  0  0  0
 19 20  1  0  0  0
 24 25  1  0  0  0
 17 18  1  0  0  0
M  END
> <minimizedAffinity>
-7.45730

> <CNNscore>
0.1294223517

> <CNNaffinity>
5.8287429810

> <CNN_VS>
0.7543696165

> <CNNaffinity_variance>
0.1631026417

$$$$
[H]OC(=O)[C@@]1([H])N(C(=O)[C@@]([H])(N([H])[C@]([H])(C(=O)O[H])C([H])([H])C([H])([H])c2c([H])c([H])c([H])c([H])c2[H])C([H])([H])[H])C([H])([H])c2c([H])c([H])c([H])c([H])c2C1([H])[H]


 33 35  0  0  0  0  0  0  0  0999 V2000
   54.7097   -4.9713   -3.4417 C   0  0  0  0  0  0  0  0  0  0  0  0
   54.2617   -6.4409   -3.3992 C   0  0  0  0  0  0  0  0  0  0  0  0
   53.1245   -6.5559   -4.3165 C   0  0  0  0  0  0  0  0  0  0  0  0
   53.3848   -7.0170   -5.4821 O   0  0  0  0  0  0  0  0  0  0  0  0
   51.7810   -6.2142   -4.0527 N   0  0  0  0  0  0  0  0  0  0  0  0
   50.8056   -6.3755   -5.1561 C   0  0  0  0  0  0  0  0  0  0  0  0
   50.2220   -5.0056   -5.4066 C   0  0  0  0  0  0  0  0  0  0  0  0
   50.1171   -4.4392   -6.6484 C   0  0  0  0  0  0  0  0  0  0  0  0
   49.5897   -3.1437   -6.7739 C   0  0  0  0  0  0  0  0  0  0  0  0
   49.1939   -2.4852   -5.6292 C   0  0  0  0  0  0  0  0  0  0  0  0
   49.3138   -3.0927   -4.3726 C   0  0  0  0  0  0  0  0  0  0  0  0
   49.8288   -4.3622   -4.2398 C   0  0  0  0  0  0  0  0  0  0  0  0
   49.9445   -5.0649   -2.9633 C   0  0  0  0  0  0  0  0  0  0  0  0
   51.2741   -5.7290   -2.8003 C   0  0  0  0  0  0  0  0  0  0  0  0
   51.2069   -6.8174   -1.7820 C   0  0  0  0  0  0  0  0  0  0  0  0
   50.3626   -7.7190   -1.9062 O   0  0  0  0  0  0  0  0  0  0  0  0
   52.0764   -6.8039   -0.7300 O   0  0  0  0  0  0  0  0  0  0  0  0
   53.0671   -6.9166   -0.9383 H   0  0  0  0  0  0  0  0  0  0  0  0
   55.4244   -7.1878   -3.8666 N   0  0  0  0  0  0  0  0  0  0  0  0
   55.7528   -7.7562   -3.0447 H   0  0  0  0  0  0  0  0  0  0  0  0
   56.4810   -6.2537   -4.1794 C   0  0  0  0  0  0  0  0  0  0  0  0
   56.6024   -6.0451   -5.6521 C   0  0  0  0  0  0  0  0  0  0  0  0
   57.6863   -6.2177   -6.2634 O   0  0  0  0  0  0  0  0  0  0  0  0
   55.5171   -5.6485   -6.4212 O   0  0  0  0  0  0  0  0  0  0  0  0
   54.8573   -4.9373   -6.1416 H   0  0  0  0  0  0  0  0  0  0  0  0
   57.7982   -6.6648   -3.5721 C   0  0  0  0  0  0  0  0  0  0  0  0
   57.8659   -6.3460   -2.0972 C   0  0  0  0  0  0  0  0  0  0  0  0
   58.9097   -7.1446   -1.4080 C   0  0  0  0  0  0  0  0  0  0  0  0
   59.9295   -6.5454   -0.6792 C   0  0  0  0  0  0  0  0  0  0  0  0
   60.9143   -7.2573   -0.0308 C   0  0  0  0  0  0  0  0  0  0  0  0
   60.9081   -8.6371   -0.0941 C   0  0  0  0  0  0  0  0  0  0  0  0
   59.8989   -9.2692   -0.8170 C   0  0  0  0  0  0  0  0  0  0  0  0
   58.9311   -8.5265   -1.4524 C   0  0  0  0  0  0  0  0  0  0  0  0
  1  2  1  0  0  0
  2 19  1  0  0  0
 19 21  1  0  0  0
 21 26  1  0  0  0
 26 27  1  0  0  0
 27 28  1  0  0  0
 28 29  2  0  0  0
 29 30  1  0  0  0
 30 31  2  0  0  0
 31 32  1  0  0  0
 32 33  2  0  0  0
 21 22  1  0  0  0
 22 23  2  0  0  0
 22 24  1  0  0  0
  2  3  1  0  0  0
  3  4  2  0  0  0
  3  5  1  0  0  0
  5  6  1  0  0  0
  6  7  1  0  0  0
  7  8  2  0  0  0
  8  9  1  0  0  0
  9 10  2  0  0  0
 10 11  1  0  0  0
 11 12  2  0  0  0
 12 13  1  0  0  0
 13 14  1  0  0  0
 14 15  1  0  0  0
 15 16  2  0  0  0
 15 17  1  0  0  0
 33 28  1  0  0  0
 14  5  1  0  0  0
 12  7  1  0  0  0
 19 20  1  0  0  0
 24 25  1  0  0  0
 17 18  1  0  0  0
M  END
> <minimizedAffinity>
-6.27677

> <CNNscore>
0.1240825132

> <CNNaffinity>
5.2017183304

> <CNN_VS>
0.6454423070

> <CNNaffinity_variance>
0.4821766317

$$$$
[H]OC(=O)[C@@]1([H])N(c2nc(C#N)nc([H])c2[H])C([H])([H])[C@@]([H])(S(=O)(=O)c2c([H])c([H])c([H])c([H])c2C(F)(F)F)C1([H])[H]


 30 32  0  0  0  0  0  0  0  0999 V2000
   55.9526   -4.0058   -9.9092 N   0  0  0  0  0  0  0  0  0  0  0  0
   54.5082   -4.0189   -9.9970 C   0  0  0  0  0  0  0  0  0  0  0  0
   54.1680   -2.9167   -8.9561 C   0  0  0  0  0  0  0  0  0  0  0  0
   55.0194   -3.3470   -7.8352 C   0  0  0  0  0  0  0  0  0  0  0  0
   56.2828   -3.8955   -8.5260 C   0  0  0  0  0  0  0  0  0  0  0  0
   57.2279   -3.9554  -13.3411 C   0  0  0  0  0  0  0  0  0  0  0  0
   58.5286   -4.2517  -13.1712 N   0  0  0  0  0  0  0  0  0  0  0  0
   59.0482   -4.4805  -11.9382 C   0  0  0  0  0  0  0  0  0  0  0  0
   58.1680   -4.3911  -10.8797 C   0  0  0  0  0  0  0  0  0  0  0  0
   56.8300   -4.0893  -11.0230 C   0  0  0  0  0  0  0  0  0  0  0  0
   56.3975   -3.8765  -12.2854 N   0  0  0  0  0  0  0  0  0  0  0  0
   56.3413   -3.5229  -15.7543 N   0  0  0  0  0  0  0  0  0  0  0  0
   56.7378   -3.7240  -14.6689 C   0  0  0  0  0  0  0  0  0  0  0  0
   56.7009   -5.1631   -7.9097 C   0  0  0  0  0  0  0  0  0  0  0  0
   55.8416   -5.9553   -7.4740 O   0  0  0  0  0  0  0  0  0  0  0  0
   58.0355   -5.4878   -7.8073 O   0  0  0  0  0  0  0  0  0  0  0  0
   58.4884   -5.7481   -6.9350 H   0  0  0  0  0  0  0  0  0  0  0  0
   52.3935   -3.0218   -8.6192 S   0  0  0  0  0  0  0  0  0  0  0  0
   51.9830   -1.6040   -8.3497 O   0  0  0  0  0  0  0  0  0  0  0  0
   51.8218   -3.5277   -9.8975 O   0  0  0  0  0  0  0  0  0  0  0  0
   52.0991   -4.0165   -7.2324 C   0  0  0  0  0  0  0  0  0  0  0  0
   53.0850   -4.8852   -6.8562 C   0  0  0  0  0  0  0  0  0  0  0  0
   52.9010   -5.6793   -5.7453 C   0  0  0  0  0  0  0  0  0  0  0  0
   51.7486   -5.6188   -5.0044 C   0  0  0  0  0  0  0  0  0  0  0  0
   50.7839   -4.7338   -5.4146 C   0  0  0  0  0  0  0  0  0  0  0  0
   50.9190   -3.9031   -6.5369 C   0  0  0  0  0  0  0  0  0  0  0  0
   49.8251   -2.9968   -6.8857 C   0  0  0  0  0  0  0  0  0  0  0  0
   49.1952   -3.2486   -8.0829 F   0  0  0  0  0  0  0  0  0  0  0  0
   50.1259   -1.6596   -6.7230 F   0  0  0  0  0  0  0  0  0  0  0  0
   48.8003   -3.1982   -5.9447 F   0  0  0  0  0  0  0  0  0  0  0  0
 12 13  3  0  0  0
 13  6  1  0  0  0
  6  7  2  0  0  0
  7  8  1  0  0  0
  8  9  2  0  0  0
  9 10  1  0  0  0
 10  1  1  0  0  0
  1  2  1  0  0  0
  2  3  1  0  0  0
  3 18  1  0  0  0
 18 19  2  0  0  0
 18 20  2  0  0  0
 18 21  1  0  0  0
 21 22  2  0  0  0
 22 23  1  0  0  0
 23 24  2  0  0  0
 24 25  1  0  0  0
 25 26  2  0  0  0
 26 27  1  0  0  0
 27 28  1  0  0  0
 27 29  1  0  0  0
 27 30  1  0  0  0
  3  4  1  0  0  0
  4  5  1  0  0  0
  5 14  1  0  0  0
 14 15  2  0  0  0
 14 16  1  0  0  0
 10 11  2  0  0  0
 11  6  1  0  0  0
  5  1  1  0  0  0
 26 21  1  0  0  0
 16 17  1  0  0  0
M  END
> <minimizedAffinity>
-9.00249

> <CNNscore>
0.3554612994

> <CNNaffinity>
6.1719560623

> <CNN_VS>
2.1938915253

> <CNNaffinity_variance>
0.0457672477

$$$$
[H]OC(=O)[C@@]1([H])N(c2nc(C#N)nc([H])c2[H])C([H])([H])[C@@]([H])(S(=O)(=O)c2c([H])c([H])c([H])c([H])c2C(F)(F)F)C1([H])[H]


 30 32  0  0  0  0  0  0  0  0999 V2000
   56.1635   -4.2331   -9.2262 N   0  0  0  0  0  0  0  0  0  0  0  0
   54.7484   -4.2651   -9.5275 C   0  0  0  0  0  0  0  0  0  0  0  0
   54.2582   -3.0962   -8.6289 C   0  0  0  0  0  0  0  0  0  0  0  0
   54.9317   -3.4401   -7.3661 C   0  0  0  0  0  0  0  0  0  0  0  0
   56.2833   -4.0240   -7.8204 C   0  0  0  0  0  0  0  0  0  0  0  0
   59.2831   -5.2644  -10.8421 C   0  0  0  0  0  0  0  0  0  0  0  0
   59.1918   -4.6782  -12.0490 N   0  0  0  0  0  0  0  0  0  0  0  0
   58.1163   -3.9240  -12.3910 C   0  0  0  0  0  0  0  0  0  0  0  0
   57.1316   -3.7970  -11.4332 C   0  0  0  0  0  0  0  0  0  0  0  0
   57.1974   -4.3860  -10.1880 C   0  0  0  0  0  0  0  0  0  0  0  0
   58.3033   -5.1191   -9.9316 N   0  0  0  0  0  0  0  0  0  0  0  0
   61.4012   -6.6806  -10.2902 N   0  0  0  0  0  0  0  0  0  0  0  0
   60.4446   -6.0493  -10.5393 C   0  0  0  0  0  0  0  0  0  0  0  0
   56.6024   -5.2420   -7.0613 C   0  0  0  0  0  0  0  0  0  0  0  0
   55.7871   -5.6868   -6.2289 O   0  0  0  0  0  0  0  0  0  0  0  0
   57.7959   -5.9005   -7.2594 O   0  0  0  0  0  0  0  0  0  0  0  0
   58.4443   -6.1322   -6.5112 H   0  0  0  0  0  0  0  0  0  0  0  0
   52.4531   -3.1935   -8.5541 S   0  0  0  0  0  0  0  0  0  0  0  0
   52.0094   -1.7642   -8.4464 O   0  0  0  0  0  0  0  0  0  0  0  0
   52.0780   -3.7898   -9.8658 O   0  0  0  0  0  0  0  0  0  0  0  0
   51.9531   -4.0943   -7.1621 C   0  0  0  0  0  0  0  0  0  0  0  0
   52.8191   -5.0299   -6.6694 C   0  0  0  0  0  0  0  0  0  0  0  0
   52.4703   -5.7535   -5.5499 C   0  0  0  0  0  0  0  0  0  0  0  0
   51.2708   -5.5568   -4.9149 C   0  0  0  0  0  0  0  0  0  0  0  0
   50.4300   -4.6084   -5.4402 C   0  0  0  0  0  0  0  0  0  0  0  0
   50.7348   -3.8446   -6.5766 C   0  0  0  0  0  0  0  0  0  0  0  0
   49.7627   -2.8608   -7.0529 C   0  0  0  0  0  0  0  0  0  0  0  0
   49.2005   -3.1184   -8.2821 F   0  0  0  0  0  0  0  0  0  0  0  0
   50.1796   -1.5506   -6.9317 F   0  0  0  0  0  0  0  0  0  0  0  0
   48.6572   -2.9131   -6.1862 F   0  0  0  0  0  0  0  0  0  0  0  0
 12 13  3  0  0  0
 13  6  1  0  0  0
  6  7  2  0  0  0
  7  8  1  0  0  0
  8  9  2  0  0  0
  9 10  1  0  0  0
 10  1  1  0  0  0
  1  2  1  0  0  0
  2  3  1  0  0  0
  3 18  1  0  0  0
 18 19  2  0  0  0
 18 20  2  0  0  0
 18 21  1  0  0  0
 21 22  2  0  0  0
 22 23  1  0  0  0
 23 24  2  0  0  0
 24 25  1  0  0  0
 25 26  2  0  0  0
 26 27  1  0  0  0
 27 28  1  0  0  0
 27 29  1  0  0  0
 27 30  1  0  0  0
  3  4  1  0  0  0
  4  5  1  0  0  0
  5 14  1  0  0  0
 14 15  2  0  0  0
 14 16  1  0  0  0
 10 11  2  0  0  0
 11  6  1  0  0  0
  5  1  1  0  0  0
 26 21  1  0  0  0
 16 17  1  0  0  0
M  END
> <minimizedAffinity>
-8.46867

> <CNNscore>
0.2998270094

> <CNNaffinity>
6.0431776047

> <CNN_VS>
1.8119078875

> <CNNaffinity_variance>
0.1041100994

$$$$
[H]OC(=O)[C@@]1([H])N(c2nc(C#N)nc([H])c2[H])C([H])([H])[C@@]([H])(S(=O)(=O)c2c([H])c([H])c([H])c([H])c2C(F)(F)F)C1([H])[H]


 30 32  0  0  0  0  0  0  0  0999 V2000
   54.8231   -4.7067   -7.2692 N   0  0  0  0  0  0  0  0  0  0  0  0
   54.6554   -5.9169   -6.4934 C   0  0  0  0  0  0  0  0  0  0  0  0
   55.6141   -5.6097   -5.3099 C   0  0  0  0  0  0  0  0  0  0  0  0
   56.8027   -5.1562   -6.0502 C   0  0  0  0  0  0  0  0  0  0  0  0
   56.2146   -4.3938   -7.2532 C   0  0  0  0  0  0  0  0  0  0  0  0
   51.5853   -3.1128   -7.8872 C   0  0  0  0  0  0  0  0  0  0  0  0
   51.7284   -2.6418   -9.1387 N   0  0  0  0  0  0  0  0  0  0  0  0
   52.8794   -2.8203   -9.8358 C   0  0  0  0  0  0  0  0  0  0  0  0
   53.8842   -3.5082   -9.1875 C   0  0  0  0  0  0  0  0  0  0  0  0
   53.7665   -4.0025   -7.9054 C   0  0  0  0  0  0  0  0  0  0  0  0
   52.5867   -3.7797   -7.2852 N   0  0  0  0  0  0  0  0  0  0  0  0
   49.3299   -2.7248   -6.6384 N   0  0  0  0  0  0  0  0  0  0  0  0
   50.3449   -2.8926   -7.2018 C   0  0  0  0  0  0  0  0  0  0  0  0
   56.9214   -4.7552   -8.4907 C   0  0  0  0  0  0  0  0  0  0  0  0
   56.7099   -4.1112   -9.5377 O   0  0  0  0  0  0  0  0  0  0  0  0
   57.8181   -5.8006   -8.5077 O   0  0  0  0  0  0  0  0  0  0  0  0
   57.7693   -6.5762   -9.1632 H   0  0  0  0  0  0  0  0  0  0  0  0
   55.8562   -7.1529   -4.3971 S   0  0  0  0  0  0  0  0  0  0  0  0
   55.2168   -8.1990   -5.2620 O   0  0  0  0  0  0  0  0  0  0  0  0
   57.3365   -7.3058   -4.3504 O   0  0  0  0  0  0  0  0  0  0  0  0
   55.0719   -7.0730   -2.8551 C   0  0  0  0  0  0  0  0  0  0  0  0
   54.0320   -7.9308   -2.6292 C   0  0  0  0  0  0  0  0  0  0  0  0
   53.3942   -7.9160   -1.4078 C   0  0  0  0  0  0  0  0  0  0  0  0
   53.7792   -7.0587   -0.4091 C   0  0  0  0  0  0  0  0  0  0  0  0
   54.8273   -6.2143   -0.6753 C   0  0  0  0  0  0  0  0  0  0  0  0
   55.5108   -6.1874   -1.9000 C   0  0  0  0  0  0  0  0  0  0  0  0
   56.6143   -5.2437   -2.0771 C   0  0  0  0  0  0  0  0  0  0  0  0
   56.3926   -4.2213   -2.9709 F   0  0  0  0  0  0  0  0  0  0  0  0
   57.8449   -5.8416   -2.2595 F   0  0  0  0  0  0  0  0  0  0  0  0
   56.7808   -4.5630   -0.8584 F   0  0  0  0  0  0  0  0  0  0  0  0
 12 13  3  0  0  0
 13  6  1  0  0  0
  6  7  2  0  0  0
  7  8  1  0  0  0
  8  9  2  0  0  0
  9 10  1  0  0  0
 10  1  1  0  0  0
  1  2  1  0  0  0
  2  3  1  0  0  0
  3 18  1  0  0  0
 18 19  2  0  0  0
 18 20  2  0  0  0
 18 21  1  0  0  0
 21 22  2  0  0  0
 22 23  1  0  0  0
 23 24  2  0  0  0
 24 25  1  0  0  0
 25 26  2  0  0  0
 26 27  1  0  0  0
 27 28  1  0  0  0
 27 29  1  0  0  0
 27 30  1  0  0  0
  3  4  1  0  0  0
  4  5  1  0  0  0
  5 14  1  0  0  0
 14 15  2  0  0  0
 14 16  1  0  0  0
 10 11  2  0  0  0
 11  6  1  0  0  0
  5  1  1  0  0  0
 26 21  1  0  0  0
 16 17  1  0  0  0
M  END
> <minimizedAffinity>
-7.36494

> <CNNscore>
0.2933284640

> <CNNaffinity>
6.2065696716

> <CNN_VS>
1.8205635548

> <CNNaffinity_variance>
0.2887301445

$$$$
[H]OC(=O)[C@@]1([H])N(c2nc(C#N)nc([H])c2[H])C([H])([H])[C@@]([H])(S(=O)(=O)c2c([H])c([H])c([H])c([H])c2C(F)(F)F)C1([H])[H]


 30 32  0  0  0  0  0  0  0  0999 V2000
   53.0138   -4.9417   -6.2869 N   0  0  0  0  0  0  0  0  0  0  0  0
   54.1982   -4.2687   -6.7756 C   0  0  0  0  0  0  0  0  0  0  0  0
   54.8526   -5.4287   -7.5759 C   0  0  0  0  0  0  0  0  0  0  0  0
   54.7610   -6.5120   -6.5837 C   0  0  0  0  0  0  0  0  0  0  0  0
   53.4183   -6.2462   -5.8759 C   0  0  0  0  0  0  0  0  0  0  0  0
   49.6461   -4.0348   -5.1722 C   0  0  0  0  0  0  0  0  0  0  0  0
   49.2110   -3.2499   -6.1738 N   0  0  0  0  0  0  0  0  0  0  0  0
   49.9894   -2.9810   -7.2528 C   0  0  0  0  0  0  0  0  0  0  0  0
   51.2430   -3.5569   -7.2587 C   0  0  0  0  0  0  0  0  0  0  0  0
   51.7163   -4.3654   -6.2467 C   0  0  0  0  0  0  0  0  0  0  0  0
   50.8754   -4.5803   -5.2110 N   0  0  0  0  0  0  0  0  0  0  0  0
   48.0649   -4.4966   -3.1515 N   0  0  0  0  0  0  0  0  0  0  0  0
   48.7771   -4.2823   -4.0584 C   0  0  0  0  0  0  0  0  0  0  0  0
   53.5621   -6.3951   -4.4203 C   0  0  0  0  0  0  0  0  0  0  0  0
   54.6901   -6.3075   -3.8952 O   0  0  0  0  0  0  0  0  0  0  0  0
   52.4616   -6.6311   -3.6263 O   0  0  0  0  0  0  0  0  0  0  0  0
   52.3924   -7.4068   -2.9726 H   0  0  0  0  0  0  0  0  0  0  0  0
   56.5460   -4.9261   -7.9671 S   0  0  0  0  0  0  0  0  0  0  0  0
   56.7284   -3.6327   -7.2289 O   0  0  0  0  0  0  0  0  0  0  0  0
   57.3794   -6.0146   -7.3862 O   0  0  0  0  0  0  0  0  0  0  0  0
   56.7270   -4.6862   -9.6727 C   0  0  0  0  0  0  0  0  0  0  0  0
   55.6765   -4.1311  -10.3484 C   0  0  0  0  0  0  0  0  0  0  0  0
   55.7866   -3.9022  -11.7027 C   0  0  0  0  0  0  0  0  0  0  0  0
   56.9292   -4.2185  -12.3920 C   0  0  0  0  0  0  0  0  0  0  0  0
   57.9607   -4.7732  -11.6775 C   0  0  0  0  0  0  0  0  0  0  0  0
   57.9017   -5.0277  -10.2992 C   0  0  0  0  0  0  0  0  0  0  0  0
   59.0610   -5.6253   -9.6370 C   0  0  0  0  0  0  0  0  0  0  0  0
   59.0402   -6.9952   -9.5100 F   0  0  0  0  0  0  0  0  0  0  0  0
   59.4282   -4.9959   -8.4647 F   0  0  0  0  0  0  0  0  0  0  0  0
   60.1747   -5.4048  -10.4661 F   0  0  0  0  0  0  0  0  0  0  0  0
 12 13  3  0  0  0
 13  6  1  0  0  0
  6  7  2  0  0  0
  7  8  1  0  0  0
  8  9  2  0  0  0
  9 10  1  0  0  0
 10  1  1  0  0  0
  1  2  1  0  0  0
  2  3  1  0  0  0
  3 18  1  0  0  0
 18 19  2  0  0  0
 18 20  2  0  0  0
 18 21  1  0  0  0
 21 22  2  0  0  0
 22 23  1  0  0  0
 23 24  2  0  0  0
 24 25  1  0  0  0
 25 26  2  0  0  0
 26 27  1  0  0  0
 27 28  1  0  0  0
 27 29  1  0  0  0
 27 30  1  0  0  0
  3  4  1  0  0  0
  4  5  1  0  0  0
  5 14  1  0  0  0
 14 15  2  0  0  0
 14 16  1  0  0  0
 10 11  2  0  0  0
 11  6  1  0  0  0
  5  1  1  0  0  0
 26 21  1  0  0  0
 16 17  1  0  0  0
M  END
> <minimizedAffinity>
-7.82311

> <CNNscore>
0.2657454312

> <CNNaffinity>
6.1003103256

> <CNN_VS>
1.6211296320

> <CNNaffinity_variance>
0.1055928916

$$$$
[H]OC(=O)[C@@]1([H])N(c2nc(C#N)nc([H])c2[H])C([H])([H])[C@@]([H])(S(=O)(=O)c2c([H])c([H])c([H])c([H])c2C(F)(F)F)C1([H])[H]


 30 32  0  0  0  0  0  0  0  0999 V2000
   51.8740   -4.5609   -6.3531 N   0  0  0  0  0  0  0  0  0  0  0  0
   52.8037   -5.0077   -7.3682 C   0  0  0  0  0  0  0  0  0  0  0  0
   53.3351   -3.6350   -7.8656 C   0  0  0  0  0  0  0  0  0  0  0  0
   52.0643   -2.9142   -8.0439 C   0  0  0  0  0  0  0  0  0  0  0  0
   51.1852   -3.4330   -6.8895 C   0  0  0  0  0  0  0  0  0  0  0  0
   52.5337   -6.5212   -3.3317 C   0  0  0  0  0  0  0  0  0  0  0  0
   51.4104   -6.3368   -2.6157 N   0  0  0  0  0  0  0  0  0  0  0  0
   50.3915   -5.5699   -3.0807 C   0  0  0  0  0  0  0  0  0  0  0  0
   50.5774   -4.9965   -4.3215 C   0  0  0  0  0  0  0  0  0  0  0  0
   51.7175   -5.1674   -5.0783 C   0  0  0  0  0  0  0  0  0  0  0  0
   52.6812   -5.9463   -4.5392 N   0  0  0  0  0  0  0  0  0  0  0  0
   54.4261   -8.0225   -2.3511 N   0  0  0  0  0  0  0  0  0  0  0  0
   53.5755   -7.3427   -2.7869 C   0  0  0  0  0  0  0  0  0  0  0  0
   49.8281   -3.7350   -7.3677 C   0  0  0  0  0  0  0  0  0  0  0  0
   49.4524   -4.9205   -7.4630 O   0  0  0  0  0  0  0  0  0  0  0  0
   48.9631   -2.7203   -7.7130 O   0  0  0  0  0  0  0  0  0  0  0  0
   48.4877   -2.6638   -8.6100 H   0  0  0  0  0  0  0  0  0  0  0  0
   54.2388   -3.9317   -9.4046 S   0  0  0  0  0  0  0  0  0  0  0  0
   53.4381   -4.9890  -10.1063 O   0  0  0  0  0  0  0  0  0  0  0  0
   54.1662   -2.6243  -10.1132 O   0  0  0  0  0  0  0  0  0  0  0  0
   55.8387   -4.5018   -9.0664 C   0  0  0  0  0  0  0  0  0  0  0  0
   56.1232   -4.8611   -7.7787 C   0  0  0  0  0  0  0  0  0  0  0  0
   57.3774   -5.3410   -7.4702 C   0  0  0  0  0  0  0  0  0  0  0  0
   58.3511   -5.4682   -8.4275 C   0  0  0  0  0  0  0  0  0  0  0  0
   58.0256   -5.0975   -9.7077 C   0  0  0  0  0  0  0  0  0  0  0  0
   56.7657   -4.6029  -10.0762 C   0  0  0  0  0  0  0  0  0  0  0  0
   56.5273   -4.2351  -11.4717 C   0  0  0  0  0  0  0  0  0  0  0  0
   56.6535   -2.8979  -11.7704 F   0  0  0  0  0  0  0  0  0  0  0  0
   55.3845   -4.7875  -12.0139 F   0  0  0  0  0  0  0  0  0  0  0  0
   57.5474   -4.8245  -12.2386 F   0  0  0  0  0  0  0  0  0  0  0  0
 12 13  3  0  0  0
 13  6  1  0  0  0
  6  7  2  0  0  0
  7  8  1  0  0  0
  8  9  2  0  0  0
  9 10  1  0  0  0
 10  1  1  0  0  0
  1  2  1  0  0  0
  2  3  1  0  0  0
  3 18  1  0  0  0
 18 19  2  0  0  0
 18 20  2  0  0  0
 18 21  1  0  0  0
 21 22  2  0  0  0
 22 23  1  0  0  0
 23 24  2  0  0  0
 24 25  1  0  0  0
 25 26  2  0  0  0
 26 27  1  0  0  0
 27 28  1  0  0  0
 27 29  1  0  0  0
 27 30  1  0  0  0
  3  4  1  0  0  0
  4  5  1  0  0  0
  5 14  1  0  0  0
 14 15  2  0  0  0
 14 16  1  0  0  0
 10 11  2  0  0  0
 11  6  1  0  0  0
  5  1  1  0  0  0
 26 21  1  0  0  0
 16 17  1  0  0  0
M  END
> <minimizedAffinity>
-7.46645

> <CNNscore>
0.2160479426

> <CNNaffinity>
5.9345641136

> <CNN_VS>
1.2821503878

> <CNNaffinity_variance>
0.0726086125

$$$$
[H]OC(=O)[C@@]1([H])N(c2nc(C#N)nc([H])c2[H])C([H])([H])[C@@]([H])(S(=O)(=O)c2c([H])c([H])c([H])c([H])c2C(F)(F)F)C1([H])[H]


 30 32  0  0  0  0  0  0  0  0999 V2000
   55.9985   -4.4943   -9.3251 N   0  0  0  0  0  0  0  0  0  0  0  0
   54.7428   -5.1097   -8.9527 C   0  0  0  0  0  0  0  0  0  0  0  0
   54.3493   -4.2063   -7.7514 C   0  0  0  0  0  0  0  0  0  0  0  0
   55.6190   -4.1976   -7.0069 C   0  0  0  0  0  0  0  0  0  0  0  0
   56.6912   -4.1999   -8.1135 C   0  0  0  0  0  0  0  0  0  0  0  0
   58.1059   -4.1061  -12.2941 C   0  0  0  0  0  0  0  0  0  0  0  0
   57.2110   -3.7824  -13.2443 N   0  0  0  0  0  0  0  0  0  0  0  0
   55.8870   -3.6761  -12.9641 C   0  0  0  0  0  0  0  0  0  0  0  0
   55.5193   -3.9182  -11.6568 C   0  0  0  0  0  0  0  0  0  0  0  0
   56.4138   -4.2518  -10.6615 C   0  0  0  0  0  0  0  0  0  0  0  0
   57.7117   -4.3357  -11.0284 N   0  0  0  0  0  0  0  0  0  0  0  0
   60.6267   -4.2893  -12.9336 N   0  0  0  0  0  0  0  0  0  0  0  0
   59.4914   -4.2032  -12.6517 C   0  0  0  0  0  0  0  0  0  0  0  0
   57.7639   -5.1529   -7.7931 C   0  0  0  0  0  0  0  0  0  0  0  0
   57.6115   -5.9703   -6.8634 O   0  0  0  0  0  0  0  0  0  0  0  0
   58.9399   -5.1539   -8.5102 O   0  0  0  0  0  0  0  0  0  0  0  0
   59.8608   -5.0834   -8.0852 H   0  0  0  0  0  0  0  0  0  0  0  0
   52.9892   -5.0247   -6.8834 S   0  0  0  0  0  0  0  0  0  0  0  0
   52.6794   -6.2251   -7.7286 O   0  0  0  0  0  0  0  0  0  0  0  0
   53.5877   -5.4109   -5.5759 O   0  0  0  0  0  0  0  0  0  0  0  0
   51.6149   -3.9754   -6.7866 C   0  0  0  0  0  0  0  0  0  0  0  0
   51.5546   -2.9293   -7.6643 C   0  0  0  0  0  0  0  0  0  0  0  0
   50.4677   -2.0829   -7.6364 C   0  0  0  0  0  0  0  0  0  0  0  0
   49.4404   -2.2654   -6.7465 C   0  0  0  0  0  0  0  0  0  0  0  0
   49.5384   -3.3269   -5.8829 C   0  0  0  0  0  0  0  0  0  0  0  0
   50.6216   -4.2181   -5.8680 C   0  0  0  0  0  0  0  0  0  0  0  0
   50.6249   -5.3161   -4.9016 C   0  0  0  0  0  0  0  0  0  0  0  0
   51.5067   -5.1906   -3.8528 F   0  0  0  0  0  0  0  0  0  0  0  0
   50.6663   -6.5717   -5.4736 F   0  0  0  0  0  0  0  0  0  0  0  0
   49.3737   -5.3114   -4.2606 F   0  0  0  0  0  0  0  0  0  0  0  0
 12 13  3  0  0  0
 13  6  1  0  0  0
  6  7  2  0  0  0
  7  8  1  0  0  0
  8  9  2  0  0  0
  9 10  1  0  0  0
 10  1  1  0  0  0
  1  2  1  0  0  0
  2  3  1  0  0  0
  3 18  1  0  0  0
 18 19  2  0  0  0
 18 20  2  0  0  0
 18 21  1  0  0  0
 21 22  2  0  0  0
 22 23  1  0  0  0
 23 24  2  0  0  0
 24 25  1  0  0  0
 25 26  2  0  0  0
 26 27  1  0  0  0
 27 28  1  0  0  0
 27 29  1  0  0  0
 27 30  1  0  0  0
  3  4  1  0  0  0
  4  5  1  0  0  0
  5 14  1  0  0  0
 14 15  2  0  0  0
 14 16  1  0  0  0
 10 11  2  0  0  0
 11  6  1  0  0  0
  5  1  1  0  0  0
 26 21  1  0  0  0
 16 17  1  0  0  0
M  END
> <minimizedAffinity>
-8.44813

> <CNNscore>
0.2159753293

> <CNNaffinity>
5.9531888962

> <CNN_VS>
1.2857419252

> <CNNaffinity_variance>
0.0966667235

$$$$
[H]OC(=O)[C@@]1([H])N(c2nc(C#N)nc([H])c2[H])C([H])([H])[C@@]([H])(S(=O)(=O)c2c([H])c([H])c([H])c([H])c2C(F)(F)F)C1([H])[H]


 30 32  0  0  0  0  0  0  0  0999 V2000
   56.5298   -4.1799  -10.6676 N   0  0  0  0  0  0  0  0  0  0  0  0
   55.1482   -4.4844  -10.3629 C   0  0  0  0  0  0  0  0  0  0  0  0
   54.9336   -3.5520   -9.1386 C   0  0  0  0  0  0  0  0  0  0  0  0
   56.1354   -3.8755   -8.3528 C   0  0  0  0  0  0  0  0  0  0  0  0
   57.2212   -4.1017   -9.4225 C   0  0  0  0  0  0  0  0  0  0  0  0
   58.8626   -3.6907  -13.4470 C   0  0  0  0  0  0  0  0  0  0  0  0
   58.0420   -3.6586  -14.5118 N   0  0  0  0  0  0  0  0  0  0  0  0
   56.6982   -3.7939  -14.3753 C   0  0  0  0  0  0  0  0  0  0  0  0
   56.2305   -3.9649  -13.0888 C   0  0  0  0  0  0  0  0  0  0  0  0
   57.0473   -4.0020  -11.9782 C   0  0  0  0  0  0  0  0  0  0  0  0
   58.3716   -3.8593  -12.2057 N   0  0  0  0  0  0  0  0  0  0  0  0
   61.4257   -3.4166  -13.8373 N   0  0  0  0  0  0  0  0  0  0  0  0
   60.2738   -3.5421  -13.6552 C   0  0  0  0  0  0  0  0  0  0  0  0
   58.0182   -5.2961   -9.1068 C   0  0  0  0  0  0  0  0  0  0  0  0
   58.2585   -5.5862   -7.9178 O   0  0  0  0  0  0  0  0  0  0  0  0
   58.5044   -6.1020  -10.1124 O   0  0  0  0  0  0  0  0  0  0  0  0
   59.4837   -6.3585  -10.2072 H   0  0  0  0  0  0  0  0  0  0  0  0
   53.3810   -4.0442   -8.3510 S   0  0  0  0  0  0  0  0  0  0  0  0
   52.6760   -2.7479   -8.0799 O   0  0  0  0  0  0  0  0  0  0  0  0
   52.6889   -4.8386   -9.4031 O   0  0  0  0  0  0  0  0  0  0  0  0
   53.6943   -4.8894   -6.8722 C   0  0  0  0  0  0  0  0  0  0  0  0
   54.9907   -5.2240   -6.5973 C   0  0  0  0  0  0  0  0  0  0  0  0
   55.2871   -5.8774   -5.4209 C   0  0  0  0  0  0  0  0  0  0  0  0
   54.3095   -6.2011   -4.5153 C   0  0  0  0  0  0  0  0  0  0  0  0
   53.0214   -5.8474   -4.8281 C   0  0  0  0  0  0  0  0  0  0  0  0
   52.6643   -5.1823   -6.0105 C   0  0  0  0  0  0  0  0  0  0  0  0
   51.2580   -4.8546   -6.2442 C   0  0  0  0  0  0  0  0  0  0  0  0
   50.6827   -5.4329   -7.3523 F   0  0  0  0  0  0  0  0  0  0  0  0
   50.9679   -3.5088   -6.1453 F   0  0  0  0  0  0  0  0  0  0  0  0
   50.5190   -5.4072   -5.1837 F   0  0  0  0  0  0  0  0  0  0  0  0
 12 13  3  0  0  0
 13  6  1  0  0  0
  6  7  2  0  0  0
  7  8  1  0  0  0
  8  9  2  0  0  0
  9 10  1  0  0  0
 10  1  1  0  0  0
  1  2  1  0  0  0
  2  3  1  0  0  0
  3 18  1  0  0  0
 18 19  2  0  0  0
 18 20  2  0  0  0
 18 21  1  0  0  0
 21 22  2  0  0  0
 22 23  1  0  0  0
 23 24  2  0  0  0
 24 25  1  0  0  0
 25 26  2  0  0  0
 26 27  1  0  0  0
 27 28  1  0  0  0
 27 29  1  0  0  0
 27 30  1  0  0  0
  3  4  1  0  0  0
  4  5  1  0  0  0
  5 14  1  0  0  0
 14 15  2  0  0  0
 14 16  1  0  0  0
 10 11  2  0  0  0
 11  6  1  0  0  0
  5  1  1  0  0  0
 26 21  1  0  0  0
 16 17  1  0  0  0
M  END
> <minimizedAffinity>
-7.55284

> <CNNscore>
0.1982183158

> <CNNaffinity>
5.8749017715

> <CNN_VS>
1.1645131111

> <CNNaffinity_variance>
0.0384477414

$$$$
[H]OC(=O)[C@@]1([H])N(c2nc(C#N)nc([H])c2[H])C([H])([H])[C@@]([H])(S(=O)(=O)c2c([H])c([H])c([H])c([H])c2C(F)(F)F)C1([H])[H]


 30 32  0  0  0  0  0  0  0  0999 V2000
   55.8256   -5.5970   -6.9927 N   0  0  0  0  0  0  0  0  0  0  0  0
   54.4052   -5.8363   -7.1317 C   0  0  0  0  0  0  0  0  0  0  0  0
   53.8715   -4.9573   -5.9669 C   0  0  0  0  0  0  0  0  0  0  0  0
   54.7693   -5.3897   -4.8837 C   0  0  0  0  0  0  0  0  0  0  0  0
   56.1155   -5.6229   -5.5963 C   0  0  0  0  0  0  0  0  0  0  0  0
   57.1394   -4.6731  -10.2831 C   0  0  0  0  0  0  0  0  0  0  0  0
   58.4461   -4.9688  -10.1668 N   0  0  0  0  0  0  0  0  0  0  0  0
   58.9575   -5.4799   -9.0180 C   0  0  0  0  0  0  0  0  0  0  0  0
   58.0626   -5.6756   -7.9865 C   0  0  0  0  0  0  0  0  0  0  0  0
   56.7181   -5.3821   -8.0764 C   0  0  0  0  0  0  0  0  0  0  0  0
   56.2945   -4.8770   -9.2560 N   0  0  0  0  0  0  0  0  0  0  0  0
   56.2766   -3.6971  -12.5414 N   0  0  0  0  0  0  0  0  0  0  0  0
   56.6584   -4.1354  -11.5227 C   0  0  0  0  0  0  0  0  0  0  0  0
   56.7333   -6.8761   -5.1386 C   0  0  0  0  0  0  0  0  0  0  0  0
   56.0213   -7.8772   -4.9230 O   0  0  0  0  0  0  0  0  0  0  0  0
   58.0944   -6.9581   -4.9445 O   0  0  0  0  0  0  0  0  0  0  0  0
   58.5236   -7.2737   -4.0784 H   0  0  0  0  0  0  0  0  0  0  0  0
   52.1361   -5.3988   -5.7090 S   0  0  0  0  0  0  0  0  0  0  0  0
   51.9167   -6.5797   -6.6083 O   0  0  0  0  0  0  0  0  0  0  0  0
   52.0803   -5.7828   -4.2715 O   0  0  0  0  0  0  0  0  0  0  0  0
   51.1036   -4.0850   -6.1642 C   0  0  0  0  0  0  0  0  0  0  0  0
   51.4272   -3.3886   -7.2949 C   0  0  0  0  0  0  0  0  0  0  0  0
   50.6203   -2.3499   -7.7054 C   0  0  0  0  0  0  0  0  0  0  0  0
   49.4955   -1.9965   -7.0048 C   0  0  0  0  0  0  0  0  0  0  0  0
   49.2053   -2.7204   -5.8761 C   0  0  0  0  0  0  0  0  0  0  0  0
   49.9918   -3.7859   -5.4135 C   0  0  0  0  0  0  0  0  0  0  0  0
   49.5901   -4.4887   -4.1951 C   0  0  0  0  0  0  0  0  0  0  0  0
   50.3482   -4.2318   -3.0759 F   0  0  0  0  0  0  0  0  0  0  0  0
   49.3573   -5.8377   -4.3720 F   0  0  0  0  0  0  0  0  0  0  0  0
   48.3218   -4.0029   -3.8321 F   0  0  0  0  0  0  0  0  0  0  0  0
 12 13  3  0  0  0
 13  6  1  0  0  0
  6  7  2  0  0  0
  7  8  1  0  0  0
  8  9  2  0  0  0
  9 10  1  0  0  0
 10  1  1  0  0  0
  1  2  1  0  0  0
  2  3  1  0  0  0
  3 18  1  0  0  0
 18 19  2  0  0  0
 18 20  2  0  0  0
 18 21  1  0  0  0
 21 22  2  0  0  0
 22 23  1  0  0  0
 23 24  2  0  0  0
 24 25  1  0  0  0
 25 26  2  0  0  0
 26 27  1  0  0  0
 27 28  1  0  0  0
 27 29  1  0  0  0
 27 30  1  0  0  0
  3  4  1  0  0  0
  4  5  1  0  0  0
  5 14  1  0  0  0
 14 15  2  0  0  0
 14 16  1  0  0  0
 10 11  2  0  0  0
 11  6  1  0  0  0
  5  1  1  0  0  0
 26 21  1  0  0  0
 16 17  1  0  0  0
M  END
> <minimizedAffinity>
-8.92765

> <CNNscore>
0.1799321920

> <CNNaffinity>
6.0768461227

> <CNN_VS>
1.0934202671

> <CNNaffinity_variance>
0.1611279547

$$$$
[H]OC(=O)[C@@]1([H])N(c2nc(C#N)nc([H])c2[H])C([H])([H])[C@@]([H])(S(=O)(=O)c2c([H])c([H])c([H])c([H])c2C(F)(F)F)C1([H])[H]


 30 32  0  0  0  0  0  0  0  0999 V2000
   52.9746   -5.0640   -6.0480 N   0  0  0  0  0  0  0  0  0  0  0  0
   54.1755   -4.3469   -6.4196 C   0  0  0  0  0  0  0  0  0  0  0  0
   54.8774   -5.4317   -7.2825 C   0  0  0  0  0  0  0  0  0  0  0  0
   54.7470   -6.5960   -6.3914 C   0  0  0  0  0  0  0  0  0  0  0  0
   53.3696   -6.3971   -5.7299 C   0  0  0  0  0  0  0  0  0  0  0  0
   49.5895   -4.1801   -4.9681 C   0  0  0  0  0  0  0  0  0  0  0  0
   49.1566   -3.4043   -5.9777 N   0  0  0  0  0  0  0  0  0  0  0  0
   49.9423   -3.1344   -7.0512 C   0  0  0  0  0  0  0  0  0  0  0  0
   51.2007   -3.6996   -7.0429 C   0  0  0  0  0  0  0  0  0  0  0  0
   51.6719   -4.4986   -6.0224 C   0  0  0  0  0  0  0  0  0  0  0  0
   50.8236   -4.7153   -4.9931 N   0  0  0  0  0  0  0  0  0  0  0  0
   47.9964   -4.6205   -2.9519 N   0  0  0  0  0  0  0  0  0  0  0  0
   48.7127   -4.4291   -3.8607 C   0  0  0  0  0  0  0  0  0  0  0  0
   53.4443   -6.6688   -4.2869 C   0  0  0  0  0  0  0  0  0  0  0  0
   54.5529   -6.8531   -3.7460 O   0  0  0  0  0  0  0  0  0  0  0  0
   52.2999   -6.7222   -3.5222 O   0  0  0  0  0  0  0  0  0  0  0  0
   52.0557   -7.5080   -2.9250 H   0  0  0  0  0  0  0  0  0  0  0  0
   56.5834   -4.8906   -7.5466 S   0  0  0  0  0  0  0  0  0  0  0  0
   56.6544   -3.5494   -6.8779 O   0  0  0  0  0  0  0  0  0  0  0  0
   57.3922   -5.9104   -6.8236 O   0  0  0  0  0  0  0  0  0  0  0  0
   56.9171   -4.7467   -9.2399 C   0  0  0  0  0  0  0  0  0  0  0  0
   58.1082   -5.2398   -9.6941 C   0  0  0  0  0  0  0  0  0  0  0  0
   58.4041   -5.1659  -11.0378 C   0  0  0  0  0  0  0  0  0  0  0  0
   57.5292   -4.6080  -11.9344 C   0  0  0  0  0  0  0  0  0  0  0  0
   56.3445   -4.1252  -11.4387 C   0  0  0  0  0  0  0  0  0  0  0  0
   55.9932   -4.1745  -10.0815 C   0  0  0  0  0  0  0  0  0  0  0  0
   54.7034   -3.6273   -9.6613 C   0  0  0  0  0  0  0  0  0  0  0  0
   54.7575   -2.5592   -8.7956 F   0  0  0  0  0  0  0  0  0  0  0  0
   53.7891   -4.5806   -9.2608 F   0  0  0  0  0  0  0  0  0  0  0  0
   54.0929   -3.0756  -10.8011 F   0  0  0  0  0  0  0  0  0  0  0  0
 12 13  3  0  0  0
 13  6  1  0  0  0
  6  7  2  0  0  0
  7  8  1  0  0  0
  8  9  2  0  0  0
  9 10  1  0  0  0
 10  1  1  0  0  0
  1  2  1  0  0  0
  2  3  1  0  0  0
  3 18  1  0  0  0
 18 19  2  0  0  0
 18 20  2  0  0  0
 18 21  1  0  0  0
 21 22  2  0  0  0
 22 23  1  0  0  0
 23 24  2  0  0  0
 24 25  1  0  0  0
 25 26  2  0  0  0
 26 27  1  0  0  0
 27 28  1  0  0  0
 27 29  1  0  0  0
 27 30  1  0  0  0
  3  4  1  0  0  0
  4  5  1  0  0  0
  5 14  1  0  0  0
 14 15  2  0  0  0
 14 16  1  0  0  0
 10 11  2  0  0  0
 11  6  1  0  0  0
  5  1  1  0  0  0
 26 21  1  0  0  0
 16 17  1  0  0  0
M  END
> <minimizedAffinity>
-8.08196

> <CNNscore>
0.1696142405

> <CNNaffinity>
6.1310062408

> <CNN_VS>
1.0399060249

> <CNNaffinity_variance>
0.1861694008

$$$$
[H]c1c([H])c([H])c(C([H])([H])n2c([H])nc(-c3c([H])c([H])c(F)c([H])c3[H])c2-c2nn3c([H])c(N([H])C(=O)C(C([H])([H])[H])(C([H])([H])[H])C([H])([H])[H])nc3c([H])c2[H])c([H])c1[H]


 36 40  0  0  0  0  0  0  0  0999 V2000
   58.7992   -4.9924  -10.6685 C   0  0  0  0  0  0  0  0  0  0  0  0
   59.0315   -4.8222  -12.0165 C   0  0  0  0  0  0  0  0  0  0  0  0
   60.3140   -5.2399  -12.2286 N   0  0  0  0  0  0  0  0  0  0  0  0
   60.8622   -5.6466  -11.1029 C   0  0  0  0  0  0  0  0  0  0  0  0
   59.9092   -5.4881  -10.1354 N   0  0  0  0  0  0  0  0  0  0  0  0
   54.0673   -4.9462   -7.1197 C   0  0  0  0  0  0  0  0  0  0  0  0
   55.2346   -5.6363   -7.3549 C   0  0  0  0  0  0  0  0  0  0  0  0
   55.8910   -5.0540   -8.4036 N   0  0  0  0  0  0  0  0  0  0  0  0
   57.0312   -5.3543   -8.9875 N   0  0  0  0  0  0  0  0  0  0  0  0
   57.5315   -4.6610  -10.0235 C   0  0  0  0  0  0  0  0  0  0  0  0
   56.7783   -3.5955  -10.4577 C   0  0  0  0  0  0  0  0  0  0  0  0
   55.5694   -3.2595   -9.8550 C   0  0  0  0  0  0  0  0  0  0  0  0
   55.1406   -4.0225   -8.8078 C   0  0  0  0  0  0  0  0  0  0  0  0
   54.0464   -3.9582   -8.0370 N   0  0  0  0  0  0  0  0  0  0  0  0
   51.7371   -4.8847   -6.3197 C   0  0  0  0  0  0  0  0  0  0  0  0
   51.3951   -4.3337   -7.4209 O   0  0  0  0  0  0  0  0  0  0  0  0
   53.1024   -5.2148   -6.1306 N   0  0  0  0  0  0  0  0  0  0  0  0
   53.3880   -5.6612   -5.2433 H   0  0  0  0  0  0  0  0  0  0  0  0
   49.9088   -3.8460   -5.1566 C   0  0  0  0  0  0  0  0  0  0  0  0
   50.6859   -5.1340   -5.3315 C   0  0  0  0  0  0  0  0  0  0  0  0
   49.7439   -6.1851   -5.8358 C   0  0  0  0  0  0  0  0  0  0  0  0
   51.2517   -5.5000   -3.9769 C   0  0  0  0  0  0  0  0  0  0  0  0
   58.1936   -4.3137  -13.0845 C   0  0  0  0  0  0  0  0  0  0  0  0
   56.8671   -4.6691  -13.1402 C   0  0  0  0  0  0  0  0  0  0  0  0
   56.0213   -4.2016  -14.1439 C   0  0  0  0  0  0  0  0  0  0  0  0
   56.5067   -3.3561  -15.1211 C   0  0  0  0  0  0  0  0  0  0  0  0
   55.6775   -2.9009  -16.1010 F   0  0  0  0  0  0  0  0  0  0  0  0
   57.8321   -2.9962  -15.0723 C   0  0  0  0  0  0  0  0  0  0  0  0
   58.6603   -3.4721  -14.0644 C   0  0  0  0  0  0  0  0  0  0  0  0
   60.1177   -5.8255   -8.7366 C   0  0  0  0  0  0  0  0  0  0  0  0
   61.2038   -6.8055   -8.5628 C   0  0  0  0  0  0  0  0  0  0  0  0
   61.0873   -8.1172   -8.9433 C   0  0  0  0  0  0  0  0  0  0  0  0
   62.0861   -9.0417   -8.7933 C   0  0  0  0  0  0  0  0  0  0  0  0
   63.2763   -8.6277   -8.2269 C   0  0  0  0  0  0  0  0  0  0  0  0
   63.4213   -7.3096   -7.8336 C   0  0  0  0  0  0  0  0  0  0  0  0
   62.4085   -6.4031   -7.9935 C   0  0  0  0  0  0  0  0  0  0  0  0
 19 20  1  0  0  0
 20 21  1  0  0  0
 20 22  1  0  0  0
 20 15  1  0  0  0
 15 16  2  0  0  0
 15 17  1  0  0  0
 17  6  1  0  0  0
  6  7  2  0  0  0
  7  8  1  0  0  0
  8  9  1  0  0  0
  9 10  2  0  0  0
 10  1  1  0  0  0
  1  2  2  0  0  0
  2 23  1  0  0  0
 23 24  2  0  0  0
 24 25  1  0  0  0
 25 26  2  0  0  0
 26 27  1  0  0  0
 26 28  1  0  0  0
 28 29  2  0  0  0
  2  3  1  0  0  0
  3  4  2  0  0  0
  4  5  1  0  0  0
  5 30  1  0  0  0
 30 31  1  0  0  0
 31 32  2  0  0  0
 32 33  1  0  0  0
 33 34  2  0  0  0
 34 35  1  0  0  0
 35 36  2  0  0  0
 10 11  1  0  0  0
 11 12  2  0  0  0
 12 13  1  0  0  0
 13 14  2  0  0  0
 14  6  1  0  0  0
 13  8  1  0  0  0
  5  1  1  0  0  0
 36 31  1  0  0  0
 29 23  1  0  0  0
 17 18  1  0  0  0
M  END
> <minimizedAffinity>
-4.39806

> <CNNscore>
0.3253409863

> <CNNaffinity>
6.8909635544

> <CNN_VS>
2.2419128418

> <CNNaffinity_variance>
0.2938714027

$$$$
[H]c1c([H])c([H])c(C([H])([H])n2c([H])nc(-c3c([H])c([H])c(F)c([H])c3[H])c2-c2nn3c([H])c(N([H])C(=O)C(C([H])([H])[H])(C([H])([H])[H])C([H])([H])[H])nc3c([H])c2[H])c([H])c1[H]


 36 40  0  0  0  0  0  0  0  0999 V2000
   59.2210   -5.6081   -9.5630 C   0  0  0  0  0  0  0  0  0  0  0  0
   59.3767   -5.3310  -10.9043 C   0  0  0  0  0  0  0  0  0  0  0  0
   60.6533   -5.7027  -11.2152 N   0  0  0  0  0  0  0  0  0  0  0  0
   61.2691   -6.1812  -10.1545 C   0  0  0  0  0  0  0  0  0  0  0  0
   60.3672   -6.1178   -9.1288 N   0  0  0  0  0  0  0  0  0  0  0  0
   53.7820   -3.8747   -8.0144 C   0  0  0  0  0  0  0  0  0  0  0  0
   54.6633   -3.8513   -9.0711 C   0  0  0  0  0  0  0  0  0  0  0  0
   55.8181   -4.4828   -8.7002 N   0  0  0  0  0  0  0  0  0  0  0  0
   56.9339   -4.7080   -9.3601 N   0  0  0  0  0  0  0  0  0  0  0  0
   57.9843   -5.3548   -8.8286 C   0  0  0  0  0  0  0  0  0  0  0  0
   57.8370   -5.7819   -7.5298 C   0  0  0  0  0  0  0  0  0  0  0  0
   56.6657   -5.5548   -6.8128 C   0  0  0  0  0  0  0  0  0  0  0  0
   55.6509   -4.8884   -7.4361 C   0  0  0  0  0  0  0  0  0  0  0  0
   54.4288   -4.5233   -7.0250 N   0  0  0  0  0  0  0  0  0  0  0  0
   51.5243   -3.7814   -7.0306 C   0  0  0  0  0  0  0  0  0  0  0  0
   51.8706   -4.6896   -6.2007 O   0  0  0  0  0  0  0  0  0  0  0  0
   52.4815   -3.3371   -7.9765 N   0  0  0  0  0  0  0  0  0  0  0  0
   52.2104   -2.6026   -8.6512 H   0  0  0  0  0  0  0  0  0  0  0  0
   50.1853   -1.8156   -7.3725 C   0  0  0  0  0  0  0  0  0  0  0  0
   50.1566   -3.2667   -6.9401 C   0  0  0  0  0  0  0  0  0  0  0  0
   49.2606   -4.0178   -7.8779 C   0  0  0  0  0  0  0  0  0  0  0  0
   49.6278   -3.2986   -5.5229 C   0  0  0  0  0  0  0  0  0  0  0  0
   58.4730   -4.7620  -11.8844 C   0  0  0  0  0  0  0  0  0  0  0  0
   58.9436   -3.8512  -12.7999 C   0  0  0  0  0  0  0  0  0  0  0  0
   58.1148   -3.2815  -13.7642 C   0  0  0  0  0  0  0  0  0  0  0  0
   56.7795   -3.6263  -13.8216 C   0  0  0  0  0  0  0  0  0  0  0  0
   55.9719   -3.0675  -14.7653 F   0  0  0  0  0  0  0  0  0  0  0  0
   56.3013   -4.5364  -12.9096 C   0  0  0  0  0  0  0  0  0  0  0  0
   57.1421   -5.0939  -11.9554 C   0  0  0  0  0  0  0  0  0  0  0  0
   60.6574   -6.5554   -7.7730 C   0  0  0  0  0  0  0  0  0  0  0  0
   61.8145   -7.4659   -7.7243 C   0  0  0  0  0  0  0  0  0  0  0  0
   61.7413   -8.7797   -8.1083 C   0  0  0  0  0  0  0  0  0  0  0  0
   62.8058   -9.6401   -8.0737 C   0  0  0  0  0  0  0  0  0  0  0  0
   64.0200   -9.1555   -7.6267 C   0  0  0  0  0  0  0  0  0  0  0  0
   64.1224   -7.8336   -7.2327 C   0  0  0  0  0  0  0  0  0  0  0  0
   63.0441   -6.9919   -7.2761 C   0  0  0  0  0  0  0  0  0  0  0  0
 19 20  1  0  0  0
 20 21  1  0  0  0
 20 22  1  0  0  0
 20 15  1  0  0  0
 15 16  2  0  0  0
 15 17  1  0  0  0
 17  6  1  0  0  0
  6  7  2  0  0  0
  7  8  1  0  0  0
  8  9  1  0  0  0
  9 10  2  0  0  0
 10  1  1  0  0  0
  1  2  2  0  0  0
  2 23  1  0  0  0
 23 24  2  0  0  0
 24 25  1  0  0  0
 25 26  2  0  0  0
 26 27  1  0  0  0
 26 28  1  0  0  0
 28 29  2  0  0  0
  2  3  1  0  0  0
  3  4  2  0  0  0
  4  5  1  0  0  0
  5 30  1  0  0  0
 30 31  1  0  0  0
 31 32  2  0  0  0
 32 33  1  0  0  0
 33 34  2  0  0  0
 34 35  1  0  0  0
 35 36  2  0  0  0
 10 11  1  0  0  0
 11 12  2  0  0  0
 12 13  1  0  0  0
 13 14  2  0  0  0
 14  6  1  0  0  0
 13  8  1  0  0  0
  5  1  1  0  0  0
 36 31  1  0  0  0
 29 23  1  0  0  0
 17 18  1  0  0  0
M  END
> <minimizedAffinity>
-6.25244

> <CNNscore>
0.2985494137

> <CNNaffinity>
6.8944997787

> <CNN_VS>
2.0583488941

> <CNNaffinity_variance>
0.2053225040

$$$$
[H]c1c([H])c([H])c(C([H])([H])n2c([H])nc(-c3c([H])c([H])c(F)c([H])c3[H])c2-c2nn3c([H])c(N([H])C(=O)C(C([H])([H])[H])(C([H])([H])[H])C([H])([H])[H])nc3c([H])c2[H])c([H])c1[H]


 36 40  0  0  0  0  0  0  0  0999 V2000
   54.2545   -4.2795   -8.2767 C   0  0  0  0  0  0  0  0  0  0  0  0
   53.0431   -3.6277   -8.3637 C   0  0  0  0  0  0  0  0  0  0  0  0
   53.0706   -2.9477   -9.5474 N   0  0  0  0  0  0  0  0  0  0  0  0
   54.2123   -3.1478  -10.1716 C   0  0  0  0  0  0  0  0  0  0  0  0
   54.9441   -3.9799   -9.3707 N   0  0  0  0  0  0  0  0  0  0  0  0
   56.6379   -6.3690   -3.2828 C   0  0  0  0  0  0  0  0  0  0  0  0
   56.6062   -5.2456   -4.0771 C   0  0  0  0  0  0  0  0  0  0  0  0
   55.7931   -5.4835   -5.1505 N   0  0  0  0  0  0  0  0  0  0  0  0
   55.4559   -4.7216   -6.1687 N   0  0  0  0  0  0  0  0  0  0  0  0
   54.6317   -5.1272   -7.1489 C   0  0  0  0  0  0  0  0  0  0  0  0
   54.1440   -6.4080   -7.0370 C   0  0  0  0  0  0  0  0  0  0  0  0
   54.4872   -7.2314   -5.9685 C   0  0  0  0  0  0  0  0  0  0  0  0
   55.3317   -6.7327   -5.0196 C   0  0  0  0  0  0  0  0  0  0  0  0
   55.8390   -7.2637   -3.8987 N   0  0  0  0  0  0  0  0  0  0  0  0
   58.7356   -6.8510   -2.0822 C   0  0  0  0  0  0  0  0  0  0  0  0
   59.3301   -6.9634   -3.2080 O   0  0  0  0  0  0  0  0  0  0  0  0
   57.3518   -6.5447   -2.0823 N   0  0  0  0  0  0  0  0  0  0  0  0
   56.8629   -6.4514   -1.1765 H   0  0  0  0  0  0  0  0  0  0  0  0
   58.8423   -8.1050   -0.0352 C   0  0  0  0  0  0  0  0  0  0  0  0
   59.5344   -7.0488   -0.8712 C   0  0  0  0  0  0  0  0  0  0  0  0
   60.8984   -7.5550   -1.2311 C   0  0  0  0  0  0  0  0  0  0  0  0
   59.6126   -5.7947   -0.0286 C   0  0  0  0  0  0  0  0  0  0  0  0
   51.9057   -3.5790   -7.4663 C   0  0  0  0  0  0  0  0  0  0  0  0
   51.0148   -2.5356   -7.5485 C   0  0  0  0  0  0  0  0  0  0  0  0
   49.9041   -2.4484   -6.7118 C   0  0  0  0  0  0  0  0  0  0  0  0
   49.6710   -3.4259   -5.7654 C   0  0  0  0  0  0  0  0  0  0  0  0
   48.5845   -3.3377   -4.9489 F   0  0  0  0  0  0  0  0  0  0  0  0
   50.5573   -4.4723   -5.6770 C   0  0  0  0  0  0  0  0  0  0  0  0
   51.6590   -4.5428   -6.5194 C   0  0  0  0  0  0  0  0  0  0  0  0
   56.2800   -4.4481   -9.7029 C   0  0  0  0  0  0  0  0  0  0  0  0
   56.5937   -4.2505  -11.1287 C   0  0  0  0  0  0  0  0  0  0  0  0
   55.7423   -4.6272  -12.1347 C   0  0  0  0  0  0  0  0  0  0  0  0
   56.0144   -4.4489  -13.4647 C   0  0  0  0  0  0  0  0  0  0  0  0
   57.2138   -3.8564  -13.8098 C   0  0  0  0  0  0  0  0  0  0  0  0
   58.0920   -3.4665  -12.8149 C   0  0  0  0  0  0  0  0  0  0  0  0
   57.7984   -3.6552  -11.4916 C   0  0  0  0  0  0  0  0  0  0  0  0
 19 20  1  0  0  0
 20 21  1  0  0  0
 20 22  1  0  0  0
 20 15  1  0  0  0
 15 16  2  0  0  0
 15 17  1  0  0  0
 17  6  1  0  0  0
  6  7  2  0  0  0
  7  8  1  0  0  0
  8  9  1  0  0  0
  9 10  2  0  0  0
 10  1  1  0  0  0
  1  2  2  0  0  0
  2 23  1  0  0  0
 23 24  2  0  0  0
 24 25  1  0  0  0
 25 26  2  0  0  0
 26 27  1  0  0  0
 26 28  1  0  0  0
 28 29  2  0  0  0
  2  3  1  0  0  0
  3  4  2  0  0  0
  4  5  1  0  0  0
  5 30  1  0  0  0
 30 31  1  0  0  0
 31 32  2  0  0  0
 32 33  1  0  0  0
 33 34  2  0  0  0
 34 35  1  0  0  0
 35 36  2  0  0  0
 10 11  1  0  0  0
 11 12  2  0  0  0
 12 13  1  0  0  0
 13 14  2  0  0  0
 14  6  1  0  0  0
 13  8  1  0  0  0
  5  1  1  0  0  0
 36 31  1  0  0  0
 29 23  1  0  0  0
 17 18  1  0  0  0
M  END
> <minimizedAffinity>
-9.85945

> <CNNscore>
0.2902980745

> <CNNaffinity>
7.2800664902

> <CNN_VS>
2.1133892536

> <CNNaffinity_variance>
0.0519732647

$$$$
[H]c1c([H])c([H])c(C([H])([H])n2c([H])nc(-c3c([H])c([H])c(F)c([H])c3[H])c2-c2nn3c([H])c(N([H])C(=O)C(C([H])([H])[H])(C([H])([H])[H])C([H])([H])[H])nc3c([H])c2[H])c([H])c1[H]


 36 40  0  0  0  0  0  0  0  0999 V2000
   54.5377   -5.4184   -5.2351 C   0  0  0  0  0  0  0  0  0  0  0  0
   55.0839   -5.9432   -4.0835 C   0  0  0  0  0  0  0  0  0  0  0  0
   54.0552   -6.0302   -3.1899 N   0  0  0  0  0  0  0  0  0  0  0  0
   52.9351   -5.5944   -3.7272 C   0  0  0  0  0  0  0  0  0  0  0  0
   53.2467   -5.2148   -5.0033 N   0  0  0  0  0  0  0  0  0  0  0  0
   56.1971   -3.9021  -10.7063 C   0  0  0  0  0  0  0  0  0  0  0  0
   55.0897   -3.9641   -9.8914 C   0  0  0  0  0  0  0  0  0  0  0  0
   55.4651   -4.4461   -8.6680 N   0  0  0  0  0  0  0  0  0  0  0  0
   54.7681   -4.6798   -7.5769 N   0  0  0  0  0  0  0  0  0  0  0  0
   55.3113   -5.1630   -6.4473 C   0  0  0  0  0  0  0  0  0  0  0  0
   56.6637   -5.4088   -6.4840 C   0  0  0  0  0  0  0  0  0  0  0  0
   57.4207   -5.1689   -7.6272 C   0  0  0  0  0  0  0  0  0  0  0  0
   56.7818   -4.6771   -8.7283 C   0  0  0  0  0  0  0  0  0  0  0  0
   57.2205   -4.3505   -9.9516 N   0  0  0  0  0  0  0  0  0  0  0  0
   56.7590   -4.2891  -13.0744 C   0  0  0  0  0  0  0  0  0  0  0  0
   57.1738   -5.4574  -12.7638 O   0  0  0  0  0  0  0  0  0  0  0  0
   56.2489   -3.4623  -12.0425 N   0  0  0  0  0  0  0  0  0  0  0  0
   55.9108   -2.5161  -12.2846 H   0  0  0  0  0  0  0  0  0  0  0  0
   56.5919   -5.1270  -15.3204 C   0  0  0  0  0  0  0  0  0  0  0  0
   56.8434   -3.8918  -14.4811 C   0  0  0  0  0  0  0  0  0  0  0  0
   55.7783   -2.8856  -14.7967 C   0  0  0  0  0  0  0  0  0  0  0  0
   58.2184   -3.3774  -14.8469 C   0  0  0  0  0  0  0  0  0  0  0  0
   56.4359   -6.3482   -3.7530 C   0  0  0  0  0  0  0  0  0  0  0  0
   57.1425   -5.6561   -2.7986 C   0  0  0  0  0  0  0  0  0  0  0  0
   58.4421   -6.0111   -2.4432 C   0  0  0  0  0  0  0  0  0  0  0  0
   59.0586   -7.0849   -3.0533 C   0  0  0  0  0  0  0  0  0  0  0  0
   60.3291   -7.4293   -2.7039 F   0  0  0  0  0  0  0  0  0  0  0  0
   58.3587   -7.7820   -4.0087 C   0  0  0  0  0  0  0  0  0  0  0  0
   57.0641   -7.4137   -4.3502 C   0  0  0  0  0  0  0  0  0  0  0  0
   52.2774   -4.6721   -5.9415 C   0  0  0  0  0  0  0  0  0  0  0  0
   51.5235   -5.7341   -6.6300 C   0  0  0  0  0  0  0  0  0  0  0  0
   50.1841   -5.9436   -6.4275 C   0  0  0  0  0  0  0  0  0  0  0  0
   49.4658   -6.9226   -7.0602 C   0  0  0  0  0  0  0  0  0  0  0  0
   50.1293   -7.7435   -7.9517 C   0  0  0  0  0  0  0  0  0  0  0  0
   51.4811   -7.5546   -8.1751 C   0  0  0  0  0  0  0  0  0  0  0  0
   52.1786   -6.5690   -7.5306 C   0  0  0  0  0  0  0  0  0  0  0  0
 19 20  1  0  0  0
 20 21  1  0  0  0
 20 22  1  0  0  0
 20 15  1  0  0  0
 15 16  2  0  0  0
 15 17  1  0  0  0
 17  6  1  0  0  0
  6  7  2  0  0  0
  7  8  1  0  0  0
  8  9  1  0  0  0
  9 10  2  0  0  0
 10  1  1  0  0  0
  1  2  2  0  0  0
  2 23  1  0  0  0
 23 24  2  0  0  0
 24 25  1  0  0  0
 25 26  2  0  0  0
 26 27  1  0  0  0
 26 28  1  0  0  0
 28 29  2  0  0  0
  2  3  1  0  0  0
  3  4  2  0  0  0
  4  5  1  0  0  0
  5 30  1  0  0  0
 30 31  1  0  0  0
 31 32  2  0  0  0
 32 33  1  0  0  0
 33 34  2  0  0  0
 34 35  1  0  0  0
 35 36  2  0  0  0
 10 11  1  0  0  0
 11 12  2  0  0  0
 12 13  1  0  0  0
 13 14  2  0  0  0
 14  6  1  0  0  0
 13  8  1  0  0  0
  5  1  1  0  0  0
 36 31  1  0  0  0
 29 23  1  0  0  0
 17 18  1  0  0  0
M  END
> <minimizedAffinity>
-6.12476

> <CNNscore>
0.2769092619

> <CNNaffinity>
7.2412199974

> <CNN_VS>
2.0051608086

> <CNNaffinity_variance>
0.1930457950

$$$$
[H]c1c([H])c([H])c(C([H])([H])n2c([H])nc(-c3c([H])c([H])c(F)c([H])c3[H])c2-c2nn3c([H])c(N([H])C(=O)C(C([H])([H])[H])(C([H])([H])[H])C([H])([H])[H])nc3c([H])c2[H])c([H])c1[H]


 36 40  0  0  0  0  0  0  0  0999 V2000
   59.0162   -4.8886  -10.8079 C   0  0  0  0  0  0  0  0  0  0  0  0
   60.1865   -5.6155  -10.7640 C   0  0  0  0  0  0  0  0  0  0  0  0
   60.8546   -5.3151  -11.9162 N   0  0  0  0  0  0  0  0  0  0  0  0
   60.1654   -4.4612  -12.6436 C   0  0  0  0  0  0  0  0  0  0  0  0
   59.0199   -4.2014  -11.9436 N   0  0  0  0  0  0  0  0  0  0  0  0
   53.9808   -4.4301   -7.7387 C   0  0  0  0  0  0  0  0  0  0  0  0
   54.5092   -4.1985   -8.9881 C   0  0  0  0  0  0  0  0  0  0  0  0
   55.8278   -4.5607   -8.9866 N   0  0  0  0  0  0  0  0  0  0  0  0
   56.7384   -4.5238   -9.9356 N   0  0  0  0  0  0  0  0  0  0  0  0
   58.0069   -4.9261   -9.7530 C   0  0  0  0  0  0  0  0  0  0  0  0
   58.3188   -5.3903   -8.4968 C   0  0  0  0  0  0  0  0  0  0  0  0
   57.3716   -5.4385   -7.4779 C   0  0  0  0  0  0  0  0  0  0  0  0
   56.1069   -5.0080   -7.7568 C   0  0  0  0  0  0  0  0  0  0  0  0
   54.9982   -4.9295   -7.0083 N   0  0  0  0  0  0  0  0  0  0  0  0
   51.9208   -5.1831   -6.6147 C   0  0  0  0  0  0  0  0  0  0  0  0
   52.4877   -6.3021   -6.3700 O   0  0  0  0  0  0  0  0  0  0  0  0
   52.6587   -4.1965   -7.3153 N   0  0  0  0  0  0  0  0  0  0  0  0
   52.2084   -3.2884   -7.5172 H   0  0  0  0  0  0  0  0  0  0  0  0
   49.6619   -5.9198   -6.9743 C   0  0  0  0  0  0  0  0  0  0  0  0
   50.5437   -5.0052   -6.1501 C   0  0  0  0  0  0  0  0  0  0  0  0
   50.4286   -5.4132   -4.7125 C   0  0  0  0  0  0  0  0  0  0  0  0
   50.0466   -3.5929   -6.3674 C   0  0  0  0  0  0  0  0  0  0  0  0
   60.7132   -6.5398   -9.7793 C   0  0  0  0  0  0  0  0  0  0  0  0
   60.5399   -7.8925   -9.9506 C   0  0  0  0  0  0  0  0  0  0  0  0
   61.0328   -8.8196   -9.0347 C   0  0  0  0  0  0  0  0  0  0  0  0
   61.7181   -8.3911   -7.9156 C   0  0  0  0  0  0  0  0  0  0  0  0
   62.1985   -9.2998   -7.0221 F   0  0  0  0  0  0  0  0  0  0  0  0
   61.8954   -7.0402   -7.7372 C   0  0  0  0  0  0  0  0  0  0  0  0
   61.3971   -6.1306   -8.6607 C   0  0  0  0  0  0  0  0  0  0  0  0
   57.9802   -3.2971  -12.4075 C   0  0  0  0  0  0  0  0  0  0  0  0
   57.4426   -3.7026  -13.7178 C   0  0  0  0  0  0  0  0  0  0  0  0
   57.9049   -3.1876  -14.9010 C   0  0  0  0  0  0  0  0  0  0  0  0
   57.4207   -3.5543  -16.1281 C   0  0  0  0  0  0  0  0  0  0  0  0
   56.4103   -4.4955  -16.1743 C   0  0  0  0  0  0  0  0  0  0  0  0
   55.9246   -5.0317  -14.9955 C   0  0  0  0  0  0  0  0  0  0  0  0
   56.4243   -4.6496  -13.7801 C   0  0  0  0  0  0  0  0  0  0  0  0
 19 20  1  0  0  0
 20 21  1  0  0  0
 20 22  1  0  0  0
 20 15  1  0  0  0
 15 16  2  0  0  0
 15 17  1  0  0  0
 17  6  1  0  0  0
  6  7  2  0  0  0
  7  8  1  0  0  0
  8  9  1  0  0  0
  9 10  2  0  0  0
 10  1  1  0  0  0
  1  2  2  0  0  0
  2 23  1  0  0  0
 23 24  2  0  0  0
 24 25  1  0  0  0
 25 26  2  0  0  0
 26 27  1  0  0  0
 26 28  1  0  0  0
 28 29  2  0  0  0
  2  3  1  0  0  0
  3  4  2  0  0  0
  4  5  1  0  0  0
  5 30  1  0  0  0
 30 31  1  0  0  0
 31 32  2  0  0  0
 32 33  1  0  0  0
 33 34  2  0  0  0
 34 35  1  0  0  0
 35 36  2  0  0  0
 10 11  1  0  0  0
 11 12  2  0  0  0
 12 13  1  0  0  0
 13 14  2  0  0  0
 14  6  1  0  0  0
 13  8  1  0  0  0
  5  1  1  0  0  0
 36 31  1  0  0  0
 29 23  1  0  0  0
 17 18  1  0  0  0
M  END
> <minimizedAffinity>
-6.89342

> <CNNscore>
0.2521364093

> <CNNaffinity>
6.8108749390

> <CNN_VS>
1.7172695398

> <CNNaffinity_variance>
0.0764540955

$$$$
[H]c1c([H])c([H])c(C([H])([H])n2c([H])nc(-c3c([H])c([H])c(F)c([H])c3[H])c2-c2nn3c([H])c(N([H])C(=O)C(C([H])([H])[H])(C([H])([H])[H])C([H])([H])[H])nc3c([H])c2[H])c([H])c1[H]


 36 40  0  0  0  0  0  0  0  0999 V2000
   53.9085   -5.6736   -5.6544 C   0  0  0  0  0  0  0  0  0  0  0  0
   54.2733   -5.8728   -4.3402 C   0  0  0  0  0  0  0  0  0  0  0  0
   53.1124   -6.1189   -3.6650 N   0  0  0  0  0  0  0  0  0  0  0  0
   52.0819   -6.0802   -4.4834 C   0  0  0  0  0  0  0  0  0  0  0  0
   52.5891   -5.8016   -5.7223 N   0  0  0  0  0  0  0  0  0  0  0  0
   56.4164   -3.9723  -10.7340 C   0  0  0  0  0  0  0  0  0  0  0  0
   55.1934   -4.0588  -10.1088 C   0  0  0  0  0  0  0  0  0  0  0  0
   55.3698   -4.5847   -8.8590 N   0  0  0  0  0  0  0  0  0  0  0  0
   54.5081   -4.8541   -7.9019 N   0  0  0  0  0  0  0  0  0  0  0  0
   54.8650   -5.3787   -6.7179 C   0  0  0  0  0  0  0  0  0  0  0  0
   56.2064   -5.6281   -6.5472 C   0  0  0  0  0  0  0  0  0  0  0  0
   57.1357   -5.3509   -7.5458 C   0  0  0  0  0  0  0  0  0  0  0  0
   56.6796   -4.8184   -8.7167 C   0  0  0  0  0  0  0  0  0  0  0  0
   57.3072   -4.4507   -9.8421 N   0  0  0  0  0  0  0  0  0  0  0  0
   56.4714   -4.2893  -13.1774 C   0  0  0  0  0  0  0  0  0  0  0  0
   56.0315   -5.4779  -13.0125 O   0  0  0  0  0  0  0  0  0  0  0  0
   56.6799   -3.4860  -12.0285 N   0  0  0  0  0  0  0  0  0  0  0  0
   57.0350   -2.5233  -12.1524 H   0  0  0  0  0  0  0  0  0  0  0  0
   56.5884   -5.0530  -15.4528 C   0  0  0  0  0  0  0  0  0  0  0  0
   56.7281   -3.8459  -14.5490 C   0  0  0  0  0  0  0  0  0  0  0  0
   55.7059   -2.8304  -14.9616 C   0  0  0  0  0  0  0  0  0  0  0  0
   58.1355   -3.3191  -14.7240 C   0  0  0  0  0  0  0  0  0  0  0  0
   55.5642   -5.8460   -3.6813 C   0  0  0  0  0  0  0  0  0  0  0  0
   55.9799   -4.7041   -3.0391 C   0  0  0  0  0  0  0  0  0  0  0  0
   57.2093   -4.6322   -2.3873 C   0  0  0  0  0  0  0  0  0  0  0  0
   58.0508   -5.7263   -2.3725 C   0  0  0  0  0  0  0  0  0  0  0  0
   59.2519   -5.6527   -1.7346 F   0  0  0  0  0  0  0  0  0  0  0  0
   57.6423   -6.8717   -3.0124 C   0  0  0  0  0  0  0  0  0  0  0  0
   56.4135   -6.9252   -3.6570 C   0  0  0  0  0  0  0  0  0  0  0  0
   51.7707   -5.6726   -6.9171 C   0  0  0  0  0  0  0  0  0  0  0  0
   51.1217   -4.3527   -6.9999 C   0  0  0  0  0  0  0  0  0  0  0  0
   49.9945   -4.0343   -6.2880 C   0  0  0  0  0  0  0  0  0  0  0  0
   49.3792   -2.8126   -6.3489 C   0  0  0  0  0  0  0  0  0  0  0  0
   49.9262   -1.8489   -7.1741 C   0  0  0  0  0  0  0  0  0  0  0  0
   51.0634   -2.1431   -7.9042 C   0  0  0  0  0  0  0  0  0  0  0  0
   51.6612   -3.3719   -7.8272 C   0  0  0  0  0  0  0  0  0  0  0  0
 19 20  1  0  0  0
 20 21  1  0  0  0
 20 22  1  0  0  0
 20 15  1  0  0  0
 15 16  2  0  0  0
 15 17  1  0  0  0
 17  6  1  0  0  0
  6  7  2  0  0  0
  7  8  1  0  0  0
  8  9  1  0  0  0
  9 10  2  0  0  0
 10  1  1  0  0  0
  1  2  2  0  0  0
  2 23  1  0  0  0
 23 24  2  0  0  0
 24 25  1  0  0  0
 25 26  2  0  0  0
 26 27  1  0  0  0
 26 28  1  0  0  0
 28 29  2  0  0  0
  2  3  1  0  0  0
  3  4  2  0  0  0
  4  5  1  0  0  0
  5 30  1  0  0  0
 30 31  1  0  0  0
 31 32  2  0  0  0
 32 33  1  0  0  0
 33 34  2  0  0  0
 34 35  1  0  0  0
 35 36  2  0  0  0
 10 11  1  0  0  0
 11 12  2  0  0  0
 12 13  1  0  0  0
 13 14  2  0  0  0
 14  6  1  0  0  0
 13  8  1  0  0  0
  5  1  1  0  0  0
 36 31  1  0  0  0
 29 23  1  0  0  0
 17 18  1  0  0  0
M  END
> <minimizedAffinity>
-9.79106

> <CNNscore>
0.1873951703

> <CNNaffinity>
6.9431228638

> <CNN_VS>
1.3011076450

> <CNNaffinity_variance>
0.3621060848

$$$$
[H]c1c([H])c([H])c(C([H])([H])n2c([H])nc(-c3c([H])c([H])c(F)c([H])c3[H])c2-c2nn3c([H])c(N([H])C(=O)C(C([H])([H])[H])(C([H])([H])[H])C([H])([H])[H])nc3c([H])c2[H])c([H])c1[H]


 36 40  0  0  0  0  0  0  0  0999 V2000
   59.1779   -5.7297   -8.9513 C   0  0  0  0  0  0  0  0  0  0  0  0
   59.2178   -5.4836  -10.3070 C   0  0  0  0  0  0  0  0  0  0  0  0
   60.4223   -5.9621  -10.7367 N   0  0  0  0  0  0  0  0  0  0  0  0
   61.1027   -6.4755   -9.7334 C   0  0  0  0  0  0  0  0  0  0  0  0
   60.3179   -6.3256   -8.6239 N   0  0  0  0  0  0  0  0  0  0  0  0
   55.0599   -5.6238   -4.7067 C   0  0  0  0  0  0  0  0  0  0  0  0
   56.1338   -6.3604   -5.1519 C   0  0  0  0  0  0  0  0  0  0  0  0
   56.6545   -5.7588   -6.2639 N   0  0  0  0  0  0  0  0  0  0  0  0
   57.6713   -6.0870   -7.0317 N   0  0  0  0  0  0  0  0  0  0  0  0
   58.0466   -5.3670   -8.1019 C   0  0  0  0  0  0  0  0  0  0  0  0
   57.3005   -4.2425   -8.3656 C   0  0  0  0  0  0  0  0  0  0  0  0
   56.2209   -3.8761   -7.5668 C   0  0  0  0  0  0  0  0  0  0  0  0
   55.9137   -4.6697   -6.4999 C   0  0  0  0  0  0  0  0  0  0  0  0
   54.9569   -4.5891   -5.5652 N   0  0  0  0  0  0  0  0  0  0  0  0
   52.8317   -5.9315   -3.6995 C   0  0  0  0  0  0  0  0  0  0  0  0
   52.3069   -5.7159   -4.8447 O   0  0  0  0  0  0  0  0  0  0  0  0
   54.2443   -5.8934   -3.5914 N   0  0  0  0  0  0  0  0  0  0  0  0
   54.6776   -6.0671   -2.6693 H   0  0  0  0  0  0  0  0  0  0  0  0
   52.5227   -5.5568   -1.3461 C   0  0  0  0  0  0  0  0  0  0  0  0
   51.9279   -6.2027   -2.5800 C   0  0  0  0  0  0  0  0  0  0  0  0
   50.5891   -5.5795   -2.8364 C   0  0  0  0  0  0  0  0  0  0  0  0
   51.8047   -7.6829   -2.2922 C   0  0  0  0  0  0  0  0  0  0  0  0
   58.2673   -4.8554  -11.2032 C   0  0  0  0  0  0  0  0  0  0  0  0
   58.7182   -4.1694  -12.3056 C   0  0  0  0  0  0  0  0  0  0  0  0
   57.8431   -3.5542  -13.1984 C   0  0  0  0  0  0  0  0  0  0  0  0
   56.4801   -3.6219  -12.9907 C   0  0  0  0  0  0  0  0  0  0  0  0
   55.6274   -3.0193  -13.8651 F   0  0  0  0  0  0  0  0  0  0  0  0
   56.0215   -4.3059  -11.8906 C   0  0  0  0  0  0  0  0  0  0  0  0
   56.9085   -4.9130  -11.0114 C   0  0  0  0  0  0  0  0  0  0  0  0
   60.7089   -6.7679   -7.2951 C   0  0  0  0  0  0  0  0  0  0  0  0
   61.9759   -7.5192   -7.3158 C   0  0  0  0  0  0  0  0  0  0  0  0
   63.1968   -6.9195   -7.1460 C   0  0  0  0  0  0  0  0  0  0  0  0
   64.3844   -7.6008   -7.1585 C   0  0  0  0  0  0  0  0  0  0  0  0
   64.3482   -8.9682   -7.3532 C   0  0  0  0  0  0  0  0  0  0  0  0
   63.1299   -9.5993   -7.5274 C   0  0  0  0  0  0  0  0  0  0  0  0
   61.9552   -8.8972   -7.5112 C   0  0  0  0  0  0  0  0  0  0  0  0
 19 20  1  0  0  0
 20 21  1  0  0  0
 20 22  1  0  0  0
 20 15  1  0  0  0
 15 16  2  0  0  0
 15 17  1  0  0  0
 17  6  1  0  0  0
  6  7  2  0  0  0
  7  8  1  0  0  0
  8  9  1  0  0  0
  9 10  2  0  0  0
 10  1  1  0  0  0
  1  2  2  0  0  0
  2 23  1  0  0  0
 23 24  2  0  0  0
 24 25  1  0  0  0
 25 26  2  0  0  0
 26 27  1  0  0  0
 26 28  1  0  0  0
 28 29  2  0  0  0
  2  3  1  0  0  0
  3  4  2  0  0  0
  4  5  1  0  0  0
  5 30  1  0  0  0
 30 31  1  0  0  0
 31 32  2  0  0  0
 32 33  1  0  0  0
 33 34  2  0  0  0
 34 35  1  0  0  0
 35 36  2  0  0  0
 10 11  1  0  0  0
 11 12  2  0  0  0
 12 13  1  0  0  0
 13 14  2  0  0  0
 14  6  1  0  0  0
 13  8  1  0  0  0
  5  1  1  0  0  0
 36 31  1  0  0  0
 29 23  1  0  0  0
 17 18  1  0  0  0
M  END
> <minimizedAffinity>
-6.05900

> <CNNscore>
0.1688266098

> <CNNaffinity>
6.3097085953

> <CNN_VS>
1.0652467012

> <CNNaffinity_variance>
0.1643206030

$$$$
[H]c1c([H])c([H])c(C([H])([H])n2c([H])nc(-c3c([H])c([H])c(F)c([H])c3[H])c2-c2nn3c([H])c(N([H])C(=O)C(C([H])([H])[H])(C([H])([H])[H])C([H])([H])[H])nc3c([H])c2[H])c([H])c1[H]


 36 40  0  0  0  0  0  0  0  0999 V2000
   63.5588   -7.9140   -7.0376 C   0  0  0  0  0  0  0  0  0  0  0  0
   64.5302   -7.1535   -6.4227 C   0  0  0  0  0  0  0  0  0  0  0  0
   65.2364   -8.0174   -5.6358 N   0  0  0  0  0  0  0  0  0  0  0  0
   64.7546   -9.2384   -5.7379 C   0  0  0  0  0  0  0  0  0  0  0  0
   63.7081   -9.1633   -6.6147 N   0  0  0  0  0  0  0  0  0  0  0  0
   58.7605   -5.4143   -9.4280 C   0  0  0  0  0  0  0  0  0  0  0  0
   59.2954   -5.7838   -8.2150 C   0  0  0  0  0  0  0  0  0  0  0  0
   60.5242   -6.3459   -8.4243 N   0  0  0  0  0  0  0  0  0  0  0  0
   61.4046   -6.8442   -7.5831 N   0  0  0  0  0  0  0  0  0  0  0  0
   62.5803   -7.3646   -7.9722 C   0  0  0  0  0  0  0  0  0  0  0  0
   62.8284   -7.3527   -9.3247 C   0  0  0  0  0  0  0  0  0  0  0  0
   61.9116   -6.8305  -10.2327 C   0  0  0  0  0  0  0  0  0  0  0  0
   60.7427   -6.3230   -9.7443 C   0  0  0  0  0  0  0  0  0  0  0  0
   59.6840   -5.7639  -10.3461 N   0  0  0  0  0  0  0  0  0  0  0  0
   56.4921   -4.8095   -8.6783 C   0  0  0  0  0  0  0  0  0  0  0  0
   56.7272   -5.3910   -7.5648 O   0  0  0  0  0  0  0  0  0  0  0  0
   57.5149   -4.8006   -9.6593 N   0  0  0  0  0  0  0  0  0  0  0  0
   57.3338   -4.3322  -10.5626 H   0  0  0  0  0  0  0  0  0  0  0  0
   54.8522   -4.2276  -10.3355 C   0  0  0  0  0  0  0  0  0  0  0  0
   55.1758   -4.1935   -8.8565 C   0  0  0  0  0  0  0  0  0  0  0  0
   54.1330   -4.9878   -8.1298 C   0  0  0  0  0  0  0  0  0  0  0  0
   55.1634   -2.7416   -8.4314 C   0  0  0  0  0  0  0  0  0  0  0  0
   64.8406   -5.7395   -6.4963 C   0  0  0  0  0  0  0  0  0  0  0  0
   65.3065   -5.2026   -7.6727 C   0  0  0  0  0  0  0  0  0  0  0  0
   65.6129   -3.8488   -7.7935 C   0  0  0  0  0  0  0  0  0  0  0  0
   65.4519   -3.0028   -6.7147 C   0  0  0  0  0  0  0  0  0  0  0  0
   65.7525   -1.6800   -6.8360 F   0  0  0  0  0  0  0  0  0  0  0  0
   64.9865   -3.5321   -5.5349 C   0  0  0  0  0  0  0  0  0  0  0  0
   64.6863   -4.8840   -5.4329 C   0  0  0  0  0  0  0  0  0  0  0  0
   62.8999  -10.3076   -7.0039 C   0  0  0  0  0  0  0  0  0  0  0  0
   61.9836  -10.7254   -5.9287 C   0  0  0  0  0  0  0  0  0  0  0  0
   61.5018   -9.8559   -4.9850 C   0  0  0  0  0  0  0  0  0  0  0  0
   60.6471  -10.2243   -3.9807 C   0  0  0  0  0  0  0  0  0  0  0  0
   60.2495  -11.5460   -3.9167 C   0  0  0  0  0  0  0  0  0  0  0  0
   60.7206  -12.4452   -4.8561 C   0  0  0  0  0  0  0  0  0  0  0  0
   61.5746  -12.0537   -5.8513 C   0  0  0  0  0  0  0  0  0  0  0  0
 19 20  1  0  0  0
 20 21  1  0  0  0
 20 22  1  0  0  0
 20 15  1  0  0  0
 15 16  2  0  0  0
 15 17  1  0  0  0
 17  6  1  0  0  0
  6  7  2  0  0  0
  7  8  1  0  0  0
  8  9  1  0  0  0
  9 10  2  0  0  0
 10  1  1  0  0  0
  1  2  2  0  0  0
  2 23  1  0  0  0
 23 24  2  0  0  0
 24 25  1  0  0  0
 25 26  2  0  0  0
 26 27  1  0  0  0
 26 28  1  0  0  0
 28 29  2  0  0  0
  2  3  1  0  0  0
  3  4  2  0  0  0
  4  5  1  0  0  0
  5 30  1  0  0  0
 30 31  1  0  0  0
 31 32  2  0  0  0
 32 33  1  0  0  0
 33 34  2  0  0  0
 34 35  1  0  0  0
 35 36  2  0  0  0
 10 11  1  0  0  0
 11 12  2  0  0  0
 12 13  1  0  0  0
 13 14  2  0  0  0
 14  6  1  0  0  0
 13  8  1  0  0  0
  5  1  1  0  0  0
 36 31  1  0  0  0
 29 23  1  0  0  0
 17 18  1  0  0  0
M  END
> <minimizedAffinity>
-6.28416

> <CNNscore>
0.1668210030

> <CNNaffinity>
5.6689538956

> <CNN_VS>
0.9457005858

> <CNNaffinity_variance>
0.2581641376

$$$$
[H]c1c([H])c([H])c(C([H])([H])n2c([H])nc(-c3c([H])c([H])c(F)c([H])c3[H])c2-c2nn3c([H])c(N([H])C(=O)C(C([H])([H])[H])(C([H])([H])[H])C([H])([H])[H])nc3c([H])c2[H])c([H])c1[H]


 36 40  0  0  0  0  0  0  0  0999 V2000
   60.7550   -5.6257  -11.3365 C   0  0  0  0  0  0  0  0  0  0  0  0
   61.6804   -6.5423  -10.8854 C   0  0  0  0  0  0  0  0  0  0  0  0
   62.7119   -6.5001  -11.7791 N   0  0  0  0  0  0  0  0  0  0  0  0
   62.4666   -5.6237  -12.7305 C   0  0  0  0  0  0  0  0  0  0  0  0
   61.2433   -5.0837  -12.4454 N   0  0  0  0  0  0  0  0  0  0  0  0
   56.4927   -5.0616   -7.2743 C   0  0  0  0  0  0  0  0  0  0  0  0
   57.8059   -5.4485   -7.4158 C   0  0  0  0  0  0  0  0  0  0  0  0
   58.1701   -5.3124   -8.7267 N   0  0  0  0  0  0  0  0  0  0  0  0
   59.3086   -5.5546   -9.3401 N   0  0  0  0  0  0  0  0  0  0  0  0
   59.4898   -5.3604  -10.6569 C   0  0  0  0  0  0  0  0  0  0  0  0
   58.4033   -4.8847  -11.3528 C   0  0  0  0  0  0  0  0  0  0  0  0
   57.1895   -4.6214  -10.7244 C   0  0  0  0  0  0  0  0  0  0  0  0
   57.0992   -4.8493   -9.3819 C   0  0  0  0  0  0  0  0  0  0  0  0
   56.0929   -4.6990   -8.5099 N   0  0  0  0  0  0  0  0  0  0  0  0
   55.1085   -6.2199   -5.5962 C   0  0  0  0  0  0  0  0  0  0  0  0
   55.2566   -7.3058   -6.2536 O   0  0  0  0  0  0  0  0  0  0  0  0
   55.7309   -5.0465   -6.0906 N   0  0  0  0  0  0  0  0  0  0  0  0
   55.6170   -4.1638   -5.5652 H   0  0  0  0  0  0  0  0  0  0  0  0
   52.8641   -5.9998   -4.7663 C   0  0  0  0  0  0  0  0  0  0  0  0
   54.3018   -6.2714   -4.3754 C   0  0  0  0  0  0  0  0  0  0  0  0
   54.3724   -7.6402   -3.7690 C   0  0  0  0  0  0  0  0  0  0  0  0
   54.7024   -5.2031   -3.3818 C   0  0  0  0  0  0  0  0  0  0  0  0
   61.6822   -7.4288   -9.7386 C   0  0  0  0  0  0  0  0  0  0  0  0
   61.2552   -8.7277   -9.8785 C   0  0  0  0  0  0  0  0  0  0  0  0
   61.2440   -9.6184   -8.8071 C   0  0  0  0  0  0  0  0  0  0  0  0
   61.6695   -9.2074   -7.5598 C   0  0  0  0  0  0  0  0  0  0  0  0
   61.6572  -10.0803   -6.5145 F   0  0  0  0  0  0  0  0  0  0  0  0
   62.0980   -7.9101   -7.4119 C   0  0  0  0  0  0  0  0  0  0  0  0
   62.1021   -7.0363   -8.4911 C   0  0  0  0  0  0  0  0  0  0  0  0
   60.6028   -4.0649  -13.2615 C   0  0  0  0  0  0  0  0  0  0  0  0
   61.4655   -3.6270  -14.3725 C   0  0  0  0  0  0  0  0  0  0  0  0
   61.2097   -3.9461  -15.6807 C   0  0  0  0  0  0  0  0  0  0  0  0
   61.9972   -3.5457  -16.7267 C   0  0  0  0  0  0  0  0  0  0  0  0
   63.1109   -2.7777  -16.4461 C   0  0  0  0  0  0  0  0  0  0  0  0
   63.3931   -2.4410  -15.1346 C   0  0  0  0  0  0  0  0  0  0  0  0
   62.5910   -2.8529  -14.1050 C   0  0  0  0  0  0  0  0  0  0  0  0
 19 20  1  0  0  0
 20 21  1  0  0  0
 20 22  1  0  0  0
 20 15  1  0  0  0
 15 16  2  0  0  0
 15 17  1  0  0  0
 17  6  1  0  0  0
  6  7  2  0  0  0
  7  8  1  0  0  0
  8  9  1  0  0  0
  9 10  2  0  0  0
 10  1  1  0  0  0
  1  2  2  0  0  0
  2 23  1  0  0  0
 23 24  2  0  0  0
 24 25  1  0  0  0
 25 26  2  0  0  0
 26 27  1  0  0  0
 26 28  1  0  0  0
 28 29  2  0  0  0
  2  3  1  0  0  0
  3  4  2  0  0  0
  4  5  1  0  0  0
  5 30  1  0  0  0
 30 31  1  0  0  0
 31 32  2  0  0  0
 32 33  1  0  0  0
 33 34  2  0  0  0
 34 35  1  0  0  0
 35 36  2  0  0  0
 10 11  1  0  0  0
 11 12  2  0  0  0
 12 13  1  0  0  0
 13 14  2  0  0  0
 14  6  1  0  0  0
 13  8  1  0  0  0
  5  1  1  0  0  0
 36 31  1  0  0  0
 29 23  1  0  0  0
 17 18  1  0  0  0
M  END
> <minimizedAffinity>
-4.04206

> <CNNscore>
0.1550921500

> <CNNaffinity>
5.7854676247

> <CNN_VS>
0.8972806334

> <CNNaffinity_variance>
0.1692678332

$$$$
[H]c1nc(N([H])[H])c(OC([H])([H])C([H])([H])[H])c(N2C([H])([H])C([H])([H])N(C([H])(c3c([H])c([H])c(C(F)(F)F)c([H])c3[H])C([H])([H])N([H])[H])C([H])([H])C2([H])[H])n1


 33 35  0  0  0  0  0  0  0  0999 V2000
   54.3382   -4.9762   -7.0527 N   0  0  0  0  0  0  0  0  0  0  0  0
   55.6312   -5.4229   -7.5205 C   0  0  0  0  0  0  0  0  0  0  0  0
   56.4804   -5.4352   -6.2724 C   0  0  0  0  0  0  0  0  0  0  0  0
   56.2291   -6.7094   -5.5497 N   0  0  0  0  0  0  0  0  0  0  0  0
   54.7795   -6.9128   -5.6276 C   0  0  0  0  0  0  0  0  0  0  0  0
   53.9933   -5.6557   -5.7514 C   0  0  0  0  0  0  0  0  0  0  0  0
   52.1163   -3.8452   -7.2924 C   0  0  0  0  0  0  0  0  0  0  0  0
   51.3085   -2.9664   -8.0464 C   0  0  0  0  0  0  0  0  0  0  0  0
   49.9579   -2.7418   -7.6927 N   0  0  0  0  0  0  0  0  0  0  0  0
   51.8155   -2.3429   -9.0981 N   0  0  0  0  0  0  0  0  0  0  0  0
   53.1062   -2.5654   -9.4229 C   0  0  0  0  0  0  0  0  0  0  0  0
   53.8694   -3.3966   -8.7143 N   0  0  0  0  0  0  0  0  0  0  0  0
   53.4083   -4.0888   -7.6010 C   0  0  0  0  0  0  0  0  0  0  0  0
   49.5936   -1.7515   -7.6946 H   0  0  0  0  0  0  0  0  0  0  0  0
   49.2933   -3.5208   -7.4341 H   0  0  0  0  0  0  0  0  0  0  0  0
   51.4678   -4.4283   -6.2150 O   0  0  0  0  0  0  0  0  0  0  0  0
   50.8770   -6.5866   -7.0633 C   0  0  0  0  0  0  0  0  0  0  0  0
   50.3775   -5.3173   -6.4105 C   0  0  0  0  0  0  0  0  0  0  0  0
   56.5822   -6.5144   -4.1574 C   0  0  0  0  0  0  0  0  0  0  0  0
   55.5050   -6.9281   -3.2427 C   0  0  0  0  0  0  0  0  0  0  0  0
   55.1735   -8.2675   -3.1639 C   0  0  0  0  0  0  0  0  0  0  0  0
   54.0964   -8.7041   -2.4054 C   0  0  0  0  0  0  0  0  0  0  0  0
   53.3250   -7.7976   -1.7127 C   0  0  0  0  0  0  0  0  0  0  0  0
   53.6274   -6.4583   -1.7639 C   0  0  0  0  0  0  0  0  0  0  0  0
   54.7223   -6.0618   -2.5373 C   0  0  0  0  0  0  0  0  0  0  0  0
   52.1386   -8.2589   -0.9512 C   0  0  0  0  0  0  0  0  0  0  0  0
   51.8301   -7.2310   -0.0310 F   0  0  0  0  0  0  0  0  0  0  0  0
   52.3704   -9.3916   -0.2102 F   0  0  0  0  0  0  0  0  0  0  0  0
   51.0282   -8.3692   -1.7541 F   0  0  0  0  0  0  0  0  0  0  0  0
   57.7436   -7.4896   -3.8617 C   0  0  0  0  0  0  0  0  0  0  0  0
   58.8623   -6.8710   -3.2447 N   0  0  0  0  0  0  0  0  0  0  0  0
   59.5932   -6.6221   -3.9209 H   0  0  0  0  0  0  0  0  0  0  0  0
   59.1792   -7.3271   -2.3825 H   0  0  0  0  0  0  0  0  0  0  0  0
 17 18  1  0  0  0
 18 16  1  0  0  0
 16  7  1  0  0  0
  7  8  2  0  0  0
  8  9  1  0  0  0
  8 10  1  0  0  0
 10 11  2  0  0  0
 11 12  1  0  0  0
 12 13  2  0  0  0
 13  1  1  0  0  0
  1  2  1  0  0  0
  2  3  1  0  0  0
  3  4  1  0  0  0
  4 19  1  0  0  0
 19 30  1  0  0  0
 30 31  1  0  0  0
 19 20  1  0  0  0
 20 21  2  0  0  0
 21 22  1  0  0  0
 22 23  2  0  0  0
 23 26  1  0  0  0
 26 27  1  0  0  0
 26 28  1  0  0  0
 26 29  1  0  0  0
 23 24  1  0  0  0
 24 25  2  0  0  0
  4  5  1  0  0  0
  5  6  1  0  0  0
 13  7  1  0  0  0
  6  1  1  0  0  0
 25 20  1  0  0  0
  9 14  1  0  0  0
  9 15  1  0  0  0
 31 32  1  0  0  0
 31 33  1  0  0  0
M  END
> <minimizedAffinity>
-6.88577

> <CNNscore>
0.5503262877

> <CNNaffinity>
6.6116132736

> <CNN_VS>
3.6385445595

> <CNNaffinity_variance>
0.3878588974

$$$$
[H]c1nc(N([H])[H])c(OC([H])([H])C([H])([H])[H])c(N2C([H])([H])C([H])([H])N(C([H])(c3c([H])c([H])c(C(F)(F)F)c([H])c3[H])C([H])([H])N([H])[H])C([H])([H])C2([H])[H])n1


 33 35  0  0  0  0  0  0  0  0999 V2000
   53.4895   -5.5413   -6.1607 N   0  0  0  0  0  0  0  0  0  0  0  0
   54.3350   -6.6334   -6.5880 C   0  0  0  0  0  0  0  0  0  0  0  0
   55.4834   -6.6033   -5.6086 C   0  0  0  0  0  0  0  0  0  0  0  0
   55.0654   -7.3228   -4.3772 N   0  0  0  0  0  0  0  0  0  0  0  0
   53.6882   -6.8865   -4.1292 C   0  0  0  0  0  0  0  0  0  0  0  0
   53.3735   -5.5315   -4.6572 C   0  0  0  0  0  0  0  0  0  0  0  0
   51.4765   -4.2492   -6.9036 C   0  0  0  0  0  0  0  0  0  0  0  0
   50.9448   -3.2914   -7.7943 C   0  0  0  0  0  0  0  0  0  0  0  0
   49.5645   -2.9839   -7.7867 N   0  0  0  0  0  0  0  0  0  0  0  0
   51.7425   -2.6711   -8.6491 N   0  0  0  0  0  0  0  0  0  0  0  0
   53.0577   -2.9732   -8.6439 C   0  0  0  0  0  0  0  0  0  0  0  0
   53.5609   -3.8790   -7.8062 N   0  0  0  0  0  0  0  0  0  0  0  0
   52.7875   -4.5730   -6.8836 C   0  0  0  0  0  0  0  0  0  0  0  0
   49.2729   -1.9709   -7.8323 H   0  0  0  0  0  0  0  0  0  0  0  0
   48.8104   -3.7223   -7.7457 H   0  0  0  0  0  0  0  0  0  0  0  0
   50.5381   -4.8202   -6.0581 O   0  0  0  0  0  0  0  0  0  0  0  0
   49.7974   -5.0151   -3.7909 C   0  0  0  0  0  0  0  0  0  0  0  0
   49.9918   -4.0887   -4.9702 C   0  0  0  0  0  0  0  0  0  0  0  0
   55.8902   -6.8551   -3.2807 C   0  0  0  0  0  0  0  0  0  0  0  0
   57.1054   -7.6685   -3.1068 C   0  0  0  0  0  0  0  0  0  0  0  0
   57.1090   -8.6678   -2.1521 C   0  0  0  0  0  0  0  0  0  0  0  0
   58.2575   -9.3923   -1.8658 C   0  0  0  0  0  0  0  0  0  0  0  0
   59.4313   -9.1211   -2.5333 C   0  0  0  0  0  0  0  0  0  0  0  0
   59.4641   -8.1377   -3.4922 C   0  0  0  0  0  0  0  0  0  0  0  0
   58.2844   -7.4341   -3.7515 C   0  0  0  0  0  0  0  0  0  0  0  0
   60.6723   -9.8550   -2.1843 C   0  0  0  0  0  0  0  0  0  0  0  0
   60.2819  -11.1803   -1.8851 F   0  0  0  0  0  0  0  0  0  0  0  0
   61.2988   -9.3685   -1.0634 F   0  0  0  0  0  0  0  0  0  0  0  0
   61.5207   -9.9633   -3.2605 F   0  0  0  0  0  0  0  0  0  0  0  0
   56.4087   -5.4585   -3.6904 C   0  0  0  0  0  0  0  0  0  0  0  0
   56.2585   -4.4764   -2.6766 N   0  0  0  0  0  0  0  0  0  0  0  0
   55.4128   -3.9091   -2.8045 H   0  0  0  0  0  0  0  0  0  0  0  0
   57.1175   -3.9641   -2.4494 H   0  0  0  0  0  0  0  0  0  0  0  0
 17 18  1  0  0  0
 18 16  1  0  0  0
 16  7  1  0  0  0
  7  8  2  0  0  0
  8  9  1  0  0  0
  8 10  1  0  0  0
 10 11  2  0  0  0
 11 12  1  0  0  0
 12 13  2  0  0  0
 13  1  1  0  0  0
  1  2  1  0  0  0
  2  3  1  0  0  0
  3  4  1  0  0  0
  4 19  1  0  0  0
 19 30  1  0  0  0
 30 31  1  0  0  0
 19 20  1  0  0  0
 20 21  2  0  0  0
 21 22  1  0  0  0
 22 23  2  0  0  0
 23 26  1  0  0  0
 26 27  1  0  0  0
 26 28  1  0  0  0
 26 29  1  0  0  0
 23 24  1  0  0  0
 24 25  2  0  0  0
  4  5  1  0  0  0
  5  6  1  0  0  0
 13  7  1  0  0  0
  6  1  1  0  0  0
 25 20  1  0  0  0
  9 14  1  0  0  0
  9 15  1  0  0  0
 31 32  1  0  0  0
 31 33  1  0  0  0
M  END
> <minimizedAffinity>
-6.62589

> <CNNscore>
0.5020917058

> <CNNaffinity>
6.3353300095

> <CNN_VS>
3.1809165478

> <CNNaffinity_variance>
0.1805859506

$$$$
[H]c1nc(N([H])[H])c(OC([H])([H])C([H])([H])[H])c(N2C([H])([H])C([H])([H])N(C([H])(c3c([H])c([H])c(C(F)(F)F)c([H])c3[H])C([H])([H])N([H])[H])C([H])([H])C2([H])[H])n1


 33 35  0  0  0  0  0  0  0  0999 V2000
   52.3086   -5.5828   -4.9334 N   0  0  0  0  0  0  0  0  0  0  0  0
   53.2584   -6.3099   -5.7455 C   0  0  0  0  0  0  0  0  0  0  0  0
   54.5820   -6.0549   -5.0655 C   0  0  0  0  0  0  0  0  0  0  0  0
   54.7177   -7.0105   -3.9354 N   0  0  0  0  0  0  0  0  0  0  0  0
   53.3965   -7.0419   -3.3014 C   0  0  0  0  0  0  0  0  0  0  0  0
   52.6093   -5.7907   -3.4704 C   0  0  0  0  0  0  0  0  0  0  0  0
   50.8887   -4.1560   -6.4240 C   0  0  0  0  0  0  0  0  0  0  0  0
   49.7647   -3.3088   -6.5347 C   0  0  0  0  0  0  0  0  0  0  0  0
   49.4655   -2.6591   -7.7545 N   0  0  0  0  0  0  0  0  0  0  0  0
   48.9784   -3.1160   -5.4876 N   0  0  0  0  0  0  0  0  0  0  0  0
   49.2750   -3.7439   -4.3305 C   0  0  0  0  0  0  0  0  0  0  0  0
   50.3370   -4.5415   -4.2233 N   0  0  0  0  0  0  0  0  0  0  0  0
   51.2097   -4.7902   -5.2757 C   0  0  0  0  0  0  0  0  0  0  0  0
   48.4656   -2.6535   -8.0914 H   0  0  0  0  0  0  0  0  0  0  0  0
   50.1959   -2.1714   -8.3413 H   0  0  0  0  0  0  0  0  0  0  0  0
   51.6249   -4.2773   -7.5923 O   0  0  0  0  0  0  0  0  0  0  0  0
   52.9267   -3.2246   -9.3023 C   0  0  0  0  0  0  0  0  0  0  0  0
   52.7758   -3.4765   -7.8188 C   0  0  0  0  0  0  0  0  0  0  0  0
   55.6599   -6.4531   -2.9853 C   0  0  0  0  0  0  0  0  0  0  0  0
   56.8420   -7.3112   -2.7989 C   0  0  0  0  0  0  0  0  0  0  0  0
   57.9210   -7.1552   -3.6484 C   0  0  0  0  0  0  0  0  0  0  0  0
   59.0156   -8.0066   -3.5934 C   0  0  0  0  0  0  0  0  0  0  0  0
   59.0441   -9.0393   -2.6826 C   0  0  0  0  0  0  0  0  0  0  0  0
   57.9912   -9.2221   -1.8191 C   0  0  0  0  0  0  0  0  0  0  0  0
   56.9101   -8.3404   -1.9062 C   0  0  0  0  0  0  0  0  0  0  0  0
   60.1872   -9.9845   -2.6652 C   0  0  0  0  0  0  0  0  0  0  0  0
   61.2624   -9.3230   -3.3015 F   0  0  0  0  0  0  0  0  0  0  0  0
   59.9570  -11.1347   -3.3792 F   0  0  0  0  0  0  0  0  0  0  0  0
   60.6237  -10.2337   -1.3857 F   0  0  0  0  0  0  0  0  0  0  0  0
   56.2115   -5.1599   -3.6262 C   0  0  0  0  0  0  0  0  0  0  0  0
   56.2917   -4.0675   -2.7234 N   0  0  0  0  0  0  0  0  0  0  0  0
   55.4808   -3.4423   -2.7938 H   0  0  0  0  0  0  0  0  0  0  0  0
   57.2110   -3.6143   -2.6841 H   0  0  0  0  0  0  0  0  0  0  0  0
 17 18  1  0  0  0
 18 16  1  0  0  0
 16  7  1  0  0  0
  7  8  2  0  0  0
  8  9  1  0  0  0
  8 10  1  0  0  0
 10 11  2  0  0  0
 11 12  1  0  0  0
 12 13  2  0  0  0
 13  1  1  0  0  0
  1  2  1  0  0  0
  2  3  1  0  0  0
  3  4  1  0  0  0
  4 19  1  0  0  0
 19 30  1  0  0  0
 30 31  1  0  0  0
 19 20  1  0  0  0
 20 21  2  0  0  0
 21 22  1  0  0  0
 22 23  2  0  0  0
 23 26  1  0  0  0
 26 27  1  0  0  0
 26 28  1  0  0  0
 26 29  1  0  0  0
 23 24  1  0  0  0
 24 25  2  0  0  0
  4  5  1  0  0  0
  5  6  1  0  0  0
 13  7  1  0  0  0
  6  1  1  0  0  0
 25 20  1  0  0  0
  9 14  1  0  0  0
  9 15  1  0  0  0
 31 32  1  0  0  0
 31 33  1  0  0  0
M  END
> <minimizedAffinity>
-6.83308

> <CNNscore>
0.3773587644

> <CNNaffinity>
6.2828035355

> <CNN_VS>
2.3708710670

> <CNNaffinity_variance>
0.0101969894

$$$$
[H]c1nc(N([H])[H])c(OC([H])([H])C([H])([H])[H])c(N2C([H])([H])C([H])([H])N(C([H])(c3c([H])c([H])c(C(F)(F)F)c([H])c3[H])C([H])([H])N([H])[H])C([H])([H])C2([H])[H])n1


 33 35  0  0  0  0  0  0  0  0999 V2000
   52.8729   -5.4292   -6.1954 N   0  0  0  0  0  0  0  0  0  0  0  0
   53.5833   -6.6862   -6.1205 C   0  0  0  0  0  0  0  0  0  0  0  0
   54.1342   -6.7044   -4.7150 C   0  0  0  0  0  0  0  0  0  0  0  0
   53.0637   -7.1803   -3.8005 N   0  0  0  0  0  0  0  0  0  0  0  0
   51.8444   -6.5067   -4.2570 C   0  0  0  0  0  0  0  0  0  0  0  0
   52.0845   -5.2017   -4.9302 C   0  0  0  0  0  0  0  0  0  0  0  0
   51.9508   -3.4248   -7.3809 C   0  0  0  0  0  0  0  0  0  0  0  0
   51.9694   -2.6213   -8.5417 C   0  0  0  0  0  0  0  0  0  0  0  0
   51.0704   -1.5394   -8.6874 N   0  0  0  0  0  0  0  0  0  0  0  0
   52.8356   -2.8791   -9.5087 N   0  0  0  0  0  0  0  0  0  0  0  0
   53.6886   -3.9135   -9.3553 C   0  0  0  0  0  0  0  0  0  0  0  0
   53.6707   -4.6747   -8.2618 N   0  0  0  0  0  0  0  0  0  0  0  0
   52.7898   -4.4687   -7.2070 C   0  0  0  0  0  0  0  0  0  0  0  0
   51.4412   -0.6205   -9.0498 H   0  0  0  0  0  0  0  0  0  0  0  0
   50.0420   -1.6105   -8.4577 H   0  0  0  0  0  0  0  0  0  0  0  0
   51.0022   -3.0460   -6.4439 O   0  0  0  0  0  0  0  0  0  0  0  0
   48.8329   -2.8150   -5.4601 C   0  0  0  0  0  0  0  0  0  0  0  0
   49.6316   -3.3772   -6.6145 C   0  0  0  0  0  0  0  0  0  0  0  0
   53.3679   -6.7045   -2.4654 C   0  0  0  0  0  0  0  0  0  0  0  0
   54.7998   -6.4098   -2.2881 C   0  0  0  0  0  0  0  0  0  0  0  0
   55.6274   -7.3966   -1.7867 C   0  0  0  0  0  0  0  0  0  0  0  0
   56.9604   -7.1447   -1.4938 C   0  0  0  0  0  0  0  0  0  0  0  0
   57.4879   -5.8886   -1.6953 C   0  0  0  0  0  0  0  0  0  0  0  0
   56.6960   -4.8840   -2.1968 C   0  0  0  0  0  0  0  0  0  0  0  0
   55.3600   -5.1812   -2.4809 C   0  0  0  0  0  0  0  0  0  0  0  0
   58.8962   -5.6050   -1.3257 C   0  0  0  0  0  0  0  0  0  0  0  0
   59.7011   -6.2767   -2.2740 F   0  0  0  0  0  0  0  0  0  0  0  0
   59.2484   -6.0980   -0.0934 F   0  0  0  0  0  0  0  0  0  0  0  0
   59.2035   -4.2730   -1.4709 F   0  0  0  0  0  0  0  0  0  0  0  0
   52.6652   -5.3361   -2.3198 C   0  0  0  0  0  0  0  0  0  0  0  0
   52.4373   -4.9546   -0.9717 N   0  0  0  0  0  0  0  0  0  0  0  0
   51.4865   -5.1794   -0.6576 H   0  0  0  0  0  0  0  0  0  0  0  0
   52.7858   -4.0211   -0.7287 H   0  0  0  0  0  0  0  0  0  0  0  0
 17 18  1  0  0  0
 18 16  1  0  0  0
 16  7  1  0  0  0
  7  8  2  0  0  0
  8  9  1  0  0  0
  8 10  1  0  0  0
 10 11  2  0  0  0
 11 12  1  0  0  0
 12 13  2  0  0  0
 13  1  1  0  0  0
  1  2  1  0  0  0
  2  3  1  0  0  0
  3  4  1  0  0  0
  4 19  1  0  0  0
 19 30  1  0  0  0
 30 31  1  0  0  0
 19 20  1  0  0  0
 20 21  2  0  0  0
 21 22  1  0  0  0
 22 23  2  0  0  0
 23 26  1  0  0  0
 26 27  1  0  0  0
 26 28  1  0  0  0
 26 29  1  0  0  0
 23 24  1  0  0  0
 24 25  2  0  0  0
  4  5  1  0  0  0
  5  6  1  0  0  0
 13  7  1  0  0  0
  6  1  1  0  0  0
 25 20  1  0  0  0
  9 14  1  0  0  0
  9 15  1  0  0  0
 31 32  1  0  0  0
 31 33  1  0  0  0
M  END
> <minimizedAffinity>
-7.09126

> <CNNscore>
0.3355778158

> <CNNaffinity>
6.5288033485

> <CNN_VS>
2.1909215450

> <CNNaffinity_variance>
0.2061381340

$$$$
[H]c1nc(N([H])[H])c(OC([H])([H])C([H])([H])[H])c(N2C([H])([H])C([H])([H])N(C([H])(c3c([H])c([H])c(C(F)(F)F)c([H])c3[H])C([H])([H])N([H])[H])C([H])([H])C2([H])[H])n1


 33 35  0  0  0  0  0  0  0  0999 V2000
   53.2263   -5.7666   -5.6917 N   0  0  0  0  0  0  0  0  0  0  0  0
   54.1591   -6.7331   -6.2266 C   0  0  0  0  0  0  0  0  0  0  0  0
   55.3764   -6.5831   -5.3464 C   0  0  0  0  0  0  0  0  0  0  0  0
   55.1595   -7.3794   -4.1105 N   0  0  0  0  0  0  0  0  0  0  0  0
   53.7661   -7.1257   -3.7327 C   0  0  0  0  0  0  0  0  0  0  0  0
   53.2421   -5.8084   -4.1843 C   0  0  0  0  0  0  0  0  0  0  0  0
   52.4775   -4.1412   -7.4440 C   0  0  0  0  0  0  0  0  0  0  0  0
   51.4987   -3.2117   -7.8582 C   0  0  0  0  0  0  0  0  0  0  0  0
   51.6723   -2.4571   -9.0415 N   0  0  0  0  0  0  0  0  0  0  0  0
   50.4041   -3.0398   -7.1343 N   0  0  0  0  0  0  0  0  0  0  0  0
   50.2510   -3.7680   -6.0086 C   0  0  0  0  0  0  0  0  0  0  0  0
   51.1749   -4.6435   -5.6144 N   0  0  0  0  0  0  0  0  0  0  0  0
   52.3500   -4.8767   -6.3185 C   0  0  0  0  0  0  0  0  0  0  0  0
   50.8547   -2.3575   -9.7010 H   0  0  0  0  0  0  0  0  0  0  0  0
   52.5810   -1.9809   -9.2926 H   0  0  0  0  0  0  0  0  0  0  0  0
   53.5705   -4.2298   -8.2918 O   0  0  0  0  0  0  0  0  0  0  0  0
   55.9383   -4.3966   -8.5969 C   0  0  0  0  0  0  0  0  0  0  0  0
   54.8092   -3.6216   -7.9555 C   0  0  0  0  0  0  0  0  0  0  0  0
   56.0133   -6.8390   -3.0712 C   0  0  0  0  0  0  0  0  0  0  0  0
   57.2194   -7.6558   -2.8554 C   0  0  0  0  0  0  0  0  0  0  0  0
   58.3364   -7.4157   -3.6332 C   0  0  0  0  0  0  0  0  0  0  0  0
   59.4623   -8.2232   -3.5532 C   0  0  0  0  0  0  0  0  0  0  0  0
   59.4848   -9.2958   -2.6896 C   0  0  0  0  0  0  0  0  0  0  0  0
   58.3942   -9.5623   -1.8976 C   0  0  0  0  0  0  0  0  0  0  0  0
   57.2822   -8.7224   -2.0074 C   0  0  0  0  0  0  0  0  0  0  0  0
   60.6652  -10.1932   -2.6486 C   0  0  0  0  0  0  0  0  0  0  0  0
   60.8891  -10.4967   -1.2861 F   0  0  0  0  0  0  0  0  0  0  0  0
   61.8159   -9.6054   -3.1133 F   0  0  0  0  0  0  0  0  0  0  0  0
   60.4080  -11.4024   -3.2498 F   0  0  0  0  0  0  0  0  0  0  0  0
   56.5443   -5.4885   -3.6019 C   0  0  0  0  0  0  0  0  0  0  0  0
   56.3354   -4.4050   -2.7091 N   0  0  0  0  0  0  0  0  0  0  0  0
   55.4942   -3.8645   -2.9410 H   0  0  0  0  0  0  0  0  0  0  0  0
   57.1782   -3.8614   -2.4946 H   0  0  0  0  0  0  0  0  0  0  0  0
 17 18  1  0  0  0
 18 16  1  0  0  0
 16  7  1  0  0  0
  7  8  2  0  0  0
  8  9  1  0  0  0
  8 10  1  0  0  0
 10 11  2  0  0  0
 11 12  1  0  0  0
 12 13  2  0  0  0
 13  1  1  0  0  0
  1  2  1  0  0  0
  2  3  1  0  0  0
  3  4  1  0  0  0
  4 19  1  0  0  0
 19 30  1  0  0  0
 30 31  1  0  0  0
 19 20  1  0  0  0
 20 21  2  0  0  0
 21 22  1  0  0  0
 22 23  2  0  0  0
 23 26  1  0  0  0
 26 27  1  0  0  0
 26 28  1  0  0  0
 26 29  1  0  0  0
 23 24  1  0  0  0
 24 25  2  0  0  0
  4  5  1  0  0  0
  5  6  1  0  0  0
 13  7  1  0  0  0
  6  1  1  0  0  0
 25 20  1  0  0  0
  9 14  1  0  0  0
  9 15  1  0  0  0
 31 32  1  0  0  0
 31 33  1  0  0  0
M  END
> <minimizedAffinity>
-6.87211

> <CNNscore>
0.2861056328

> <CNNaffinity>
6.1669640541

> <CNN_VS>
1.7644031048

> <CNNaffinity_variance>
0.0899059698

$$$$
[H]c1nc(N([H])[H])c(OC([H])([H])C([H])([H])[H])c(N2C([H])([H])C([H])([H])N(C([H])(c3c([H])c([H])c(C(F)(F)F)c([H])c3[H])C([H])([H])N([H])[H])C([H])([H])C2([H])[H])n1


 33 35  0  0  0  0  0  0  0  0999 V2000
   52.0749   -5.4760   -5.1334 N   0  0  0  0  0  0  0  0  0  0  0  0
   53.1232   -6.4424   -5.3735 C   0  0  0  0  0  0  0  0  0  0  0  0
   53.9768   -6.3629   -4.1310 C   0  0  0  0  0  0  0  0  0  0  0  0
   53.3504   -7.2065   -3.0798 N   0  0  0  0  0  0  0  0  0  0  0  0
   51.9136   -6.9330   -3.1770 C   0  0  0  0  0  0  0  0  0  0  0  0
   51.5846   -5.5839   -3.7114 C   0  0  0  0  0  0  0  0  0  0  0  0
   51.8428   -4.0330   -7.1674 C   0  0  0  0  0  0  0  0  0  0  0  0
   51.1285   -3.0006   -7.8134 C   0  0  0  0  0  0  0  0  0  0  0  0
   51.5566   -2.4970   -9.0636 N   0  0  0  0  0  0  0  0  0  0  0  0
   50.0449   -2.4937   -7.2470 N   0  0  0  0  0  0  0  0  0  0  0  0
   49.6471   -2.9852   -6.0548 C   0  0  0  0  0  0  0  0  0  0  0  0
   50.3215   -3.9574   -5.4422 N   0  0  0  0  0  0  0  0  0  0  0  0
   51.4682   -4.5369   -5.9717 C   0  0  0  0  0  0  0  0  0  0  0  0
   50.8356   -2.3383   -9.8174 H   0  0  0  0  0  0  0  0  0  0  0  0
   52.5647   -2.2643   -9.2758 H   0  0  0  0  0  0  0  0  0  0  0  0
   52.9529   -4.4790   -7.8676 O   0  0  0  0  0  0  0  0  0  0  0  0
   55.1398   -4.2355   -8.8084 C   0  0  0  0  0  0  0  0  0  0  0  0
   54.2376   -3.9193   -7.6367 C   0  0  0  0  0  0  0  0  0  0  0  0
   53.8123   -6.7345   -1.7894 C   0  0  0  0  0  0  0  0  0  0  0  0
   55.2782   -6.7929   -1.6631 C   0  0  0  0  0  0  0  0  0  0  0  0
   55.8894   -8.0267   -1.5429 C   0  0  0  0  0  0  0  0  0  0  0  0
   57.2528   -8.1403   -1.3099 C   0  0  0  0  0  0  0  0  0  0  0  0
   58.0305   -7.0104   -1.1873 C   0  0  0  0  0  0  0  0  0  0  0  0
   57.4581   -5.7670   -1.3056 C   0  0  0  0  0  0  0  0  0  0  0  0
   56.0823   -5.6977   -1.5431 C   0  0  0  0  0  0  0  0  0  0  0  0
   59.4763   -7.1322   -0.8787 C   0  0  0  0  0  0  0  0  0  0  0  0
   59.8096   -6.0154   -0.0785 F   0  0  0  0  0  0  0  0  0  0  0  0
   60.2802   -7.0716   -1.9903 F   0  0  0  0  0  0  0  0  0  0  0  0
   59.7398   -8.2296   -0.0937 F   0  0  0  0  0  0  0  0  0  0  0  0
   53.4734   -5.2282   -1.7296 C   0  0  0  0  0  0  0  0  0  0  0  0
   52.9465   -4.8133   -0.4786 N   0  0  0  0  0  0  0  0  0  0  0  0
   51.9209   -4.7742   -0.4804 H   0  0  0  0  0  0  0  0  0  0  0  0
   53.4296   -4.0124   -0.0576 H   0  0  0  0  0  0  0  0  0  0  0  0
 17 18  1  0  0  0
 18 16  1  0  0  0
 16  7  1  0  0  0
  7  8  2  0  0  0
  8  9  1  0  0  0
  8 10  1  0  0  0
 10 11  2  0  0  0
 11 12  1  0  0  0
 12 13  2  0  0  0
 13  1  1  0  0  0
  1  2  1  0  0  0
  2  3  1  0  0  0
  3  4  1  0  0  0
  4 19  1  0  0  0
 19 30  1  0  0  0
 30 31  1  0  0  0
 19 20  1  0  0  0
 20 21  2  0  0  0
 21 22  1  0  0  0
 22 23  2  0  0  0
 23 26  1  0  0  0
 26 27  1  0  0  0
 26 28  1  0  0  0
 26 29  1  0  0  0
 23 24  1  0  0  0
 24 25  2  0  0  0
  4  5  1  0  0  0
  5  6  1  0  0  0
 13  7  1  0  0  0
  6  1  1  0  0  0
 25 20  1  0  0  0
  9 14  1  0  0  0
  9 15  1  0  0  0
 31 32  1  0  0  0
 31 33  1  0  0  0
M  END
> <minimizedAffinity>
-6.97022

> <CNNscore>
0.2790958881

> <CNNaffinity>
6.5137052536

> <CNN_VS>
1.8179483414

> <CNNaffinity_variance>
0.2419015467

$$$$
[H]c1nc(N([H])[H])c(OC([H])([H])C([H])([H])[H])c(N2C([H])([H])C([H])([H])N(C([H])(c3c([H])c([H])c(C(F)(F)F)c([H])c3[H])C([H])([H])N([H])[H])C([H])([H])C2([H])[H])n1


 33 35  0  0  0  0  0  0  0  0999 V2000
   55.5229   -5.8715   -5.9027 N   0  0  0  0  0  0  0  0  0  0  0  0
   55.0286   -7.1987   -5.6119 C   0  0  0  0  0  0  0  0  0  0  0  0
   55.6872   -7.5478   -4.2991 C   0  0  0  0  0  0  0  0  0  0  0  0
   54.8907   -6.9400   -3.2014 N   0  0  0  0  0  0  0  0  0  0  0  0
   54.5427   -5.5989   -3.6799 C   0  0  0  0  0  0  0  0  0  0  0  0
   55.5128   -5.0279   -4.6528 C   0  0  0  0  0  0  0  0  0  0  0  0
   55.3005   -4.5370   -8.0105 C   0  0  0  0  0  0  0  0  0  0  0  0
   55.9026   -4.1152   -9.2159 C   0  0  0  0  0  0  0  0  0  0  0  0
   55.1811   -3.3393  -10.1525 N   0  0  0  0  0  0  0  0  0  0  0  0
   57.1567   -4.4472   -9.4782 N   0  0  0  0  0  0  0  0  0  0  0  0
   57.8336   -5.1863   -8.5746 C   0  0  0  0  0  0  0  0  0  0  0  0
   57.2662   -5.5879   -7.4378 N   0  0  0  0  0  0  0  0  0  0  0  0
   55.9549   -5.2821   -7.0939 C   0  0  0  0  0  0  0  0  0  0  0  0
   55.6569   -2.5055  -10.5903 H   0  0  0  0  0  0  0  0  0  0  0  0
   54.1894   -3.5604  -10.4409 H   0  0  0  0  0  0  0  0  0  0  0  0
   53.9882   -4.1182   -7.8550 O   0  0  0  0  0  0  0  0  0  0  0  0
   52.0322   -4.7800   -6.6454 C   0  0  0  0  0  0  0  0  0  0  0  0
   52.9185   -5.0525   -7.8400 C   0  0  0  0  0  0  0  0  0  0  0  0
   55.7537   -6.7957   -2.0457 C   0  0  0  0  0  0  0  0  0  0  0  0
   57.1073   -7.3226   -2.2876 C   0  0  0  0  0  0  0  0  0  0  0  0
   57.3554   -8.6611   -2.0484 C   0  0  0  0  0  0  0  0  0  0  0  0
   58.6341   -9.1907   -2.1513 C   0  0  0  0  0  0  0  0  0  0  0  0
   59.6936   -8.3799   -2.4930 C   0  0  0  0  0  0  0  0  0  0  0  0
   59.4839   -7.0451   -2.7426 C   0  0  0  0  0  0  0  0  0  0  0  0
   58.1802   -6.5533   -2.6306 C   0  0  0  0  0  0  0  0  0  0  0  0
   61.0685   -8.9343   -2.5441 C   0  0  0  0  0  0  0  0  0  0  0  0
   61.1350   -9.9304   -1.5432 F   0  0  0  0  0  0  0  0  0  0  0  0
   62.0416   -8.0127   -2.2450 F   0  0  0  0  0  0  0  0  0  0  0  0
   61.3091   -9.5940   -3.7259 F   0  0  0  0  0  0  0  0  0  0  0  0
   55.9551   -5.2778   -1.8390 C   0  0  0  0  0  0  0  0  0  0  0  0
   55.7751   -4.8583   -0.4949 N   0  0  0  0  0  0  0  0  0  0  0  0
   54.8329   -4.4889   -0.3239 H   0  0  0  0  0  0  0  0  0  0  0  0
   56.5529   -4.3101   -0.1122 H   0  0  0  0  0  0  0  0  0  0  0  0
 17 18  1  0  0  0
 18 16  1  0  0  0
 16  7  1  0  0  0
  7  8  2  0  0  0
  8  9  1  0  0  0
  8 10  1  0  0  0
 10 11  2  0  0  0
 11 12  1  0  0  0
 12 13  2  0  0  0
 13  1  1  0  0  0
  1  2  1  0  0  0
  2  3  1  0  0  0
  3  4  1  0  0  0
  4 19  1  0  0  0
 19 30  1  0  0  0
 30 31  1  0  0  0
 19 20  1  0  0  0
 20 21  2  0  0  0
 21 22  1  0  0  0
 22 23  2  0  0  0
 23 26  1  0  0  0
 26 27  1  0  0  0
 26 28  1  0  0  0
 26 29  1  0  0  0
 23 24  1  0  0  0
 24 25  2  0  0  0
  4  5  1  0  0  0
  5  6  1  0  0  0
 13  7  1  0  0  0
  6  1  1  0  0  0
 25 20  1  0  0  0
  9 14  1  0  0  0
  9 15  1  0  0  0
 31 32  1  0  0  0
 31 33  1  0  0  0
M  END
> <minimizedAffinity>
-6.55954

> <CNNscore>
0.1916408092

> <CNNaffinity>
5.3651843071

> <CNN_VS>
1.0281882286

> <CNNaffinity_variance>
0.4795320034

$$$$
[H]c1nc(N([H])[H])c(OC([H])([H])C([H])([H])[H])c(N2C([H])([H])C([H])([H])N(C([H])(c3c([H])c([H])c(C(F)(F)F)c([H])c3[H])C([H])([H])N([H])[H])C([H])([H])C2([H])[H])n1


 33 35  0  0  0  0  0  0  0  0999 V2000
   54.0292   -6.3435   -5.4049 N   0  0  0  0  0  0  0  0  0  0  0  0
   55.0756   -7.2564   -5.8073 C   0  0  0  0  0  0  0  0  0  0  0  0
   56.1597   -7.0358   -4.7802 C   0  0  0  0  0  0  0  0  0  0  0  0
   55.8312   -7.8408   -3.5748 N   0  0  0  0  0  0  0  0  0  0  0  0
   54.3888   -7.6659   -3.3806 C   0  0  0  0  0  0  0  0  0  0  0  0
   53.8540   -6.3814   -3.9076 C   0  0  0  0  0  0  0  0  0  0  0  0
   53.4195   -4.7712   -7.2568 C   0  0  0  0  0  0  0  0  0  0  0  0
   52.4521   -3.8985   -7.8010 C   0  0  0  0  0  0  0  0  0  0  0  0
   52.7315   -3.1425   -8.9629 N   0  0  0  0  0  0  0  0  0  0  0  0
   51.2682   -3.7820   -7.2208 N   0  0  0  0  0  0  0  0  0  0  0  0
   51.0148   -4.5108   -6.1138 C   0  0  0  0  0  0  0  0  0  0  0  0
   51.9275   -5.3327   -5.5970 N   0  0  0  0  0  0  0  0  0  0  0  0
   53.1919   -5.5060   -6.1468 C   0  0  0  0  0  0  0  0  0  0  0  0
   51.9985   -3.0912   -9.7200 H   0  0  0  0  0  0  0  0  0  0  0  0
   53.6379   -2.6193   -9.1052 H   0  0  0  0  0  0  0  0  0  0  0  0
   54.6129   -4.8054   -7.9612 O   0  0  0  0  0  0  0  0  0  0  0  0
   57.0059   -4.7868   -7.9768 C   0  0  0  0  0  0  0  0  0  0  0  0
   55.7505   -4.0849   -7.5096 C   0  0  0  0  0  0  0  0  0  0  0  0
   56.5131   -7.2507   -2.4399 C   0  0  0  0  0  0  0  0  0  0  0  0
   57.7667   -7.9508   -2.1132 C   0  0  0  0  0  0  0  0  0  0  0  0
   57.7226   -9.0348   -1.2570 C   0  0  0  0  0  0  0  0  0  0  0  0
   58.8813   -9.6649   -0.8253 C   0  0  0  0  0  0  0  0  0  0  0  0
   60.1126   -9.2116   -1.2437 C   0  0  0  0  0  0  0  0  0  0  0  0
   60.1950   -8.1392   -2.0986 C   0  0  0  0  0  0  0  0  0  0  0  0
   59.0036   -7.5357   -2.5113 C   0  0  0  0  0  0  0  0  0  0  0  0
   61.3520   -9.8478   -0.7343 C   0  0  0  0  0  0  0  0  0  0  0  0
   62.1172  -10.1981   -1.8702 F   0  0  0  0  0  0  0  0  0  0  0  0
   61.1249  -11.0111   -0.0409 F   0  0  0  0  0  0  0  0  0  0  0  0
   62.1319   -8.9579   -0.0346 F   0  0  0  0  0  0  0  0  0  0  0  0
   56.9568   -5.8389   -2.8840 C   0  0  0  0  0  0  0  0  0  0  0  0
   56.5569   -4.8102   -1.9914 N   0  0  0  0  0  0  0  0  0  0  0  0
   55.6928   -4.3457   -2.2928 H   0  0  0  0  0  0  0  0  0  0  0  0
   57.3174   -4.1955   -1.6820 H   0  0  0  0  0  0  0  0  0  0  0  0
 17 18  1  0  0  0
 18 16  1  0  0  0
 16  7  1  0  0  0
  7  8  2  0  0  0
  8  9  1  0  0  0
  8 10  1  0  0  0
 10 11  2  0  0  0
 11 12  1  0  0  0
 12 13  2  0  0  0
 13  1  1  0  0  0
  1  2  1  0  0  0
  2  3  1  0  0  0
  3  4  1  0  0  0
  4 19  1  0  0  0
 19 30  1  0  0  0
 30 31  1  0  0  0
 19 20  1  0  0  0
 20 21  2  0  0  0
 21 22  1  0  0  0
 22 23  2  0  0  0
 23 26  1  0  0  0
 26 27  1  0  0  0
 26 28  1  0  0  0
 26 29  1  0  0  0
 23 24  1  0  0  0
 24 25  2  0  0  0
  4  5  1  0  0  0
  5  6  1  0  0  0
 13  7  1  0  0  0
  6  1  1  0  0  0
 25 20  1  0  0  0
  9 14  1  0  0  0
  9 15  1  0  0  0
 31 32  1  0  0  0
 31 33  1  0  0  0
M  END
> <minimizedAffinity>
-6.20267

> <CNNscore>
0.1332362741

> <CNNaffinity>
5.6210770607

> <CNN_VS>
0.7489313483

> <CNNaffinity_variance>
0.2770277262

$$$$
[H]c1nc(N([H])[H])c(OC([H])([H])C([H])([H])[H])c(N2C([H])([H])C([H])([H])N(C([H])(c3c([H])c([H])c(C(F)(F)F)c([H])c3[H])C([H])([H])N([H])[H])C([H])([H])C2([H])[H])n1


 33 35  0  0  0  0  0  0  0  0999 V2000
   53.9947   -6.2589   -5.1601 N   0  0  0  0  0  0  0  0  0  0  0  0
   54.9011   -7.3421   -5.4689 C   0  0  0  0  0  0  0  0  0  0  0  0
   56.0458   -7.1384   -4.5061 C   0  0  0  0  0  0  0  0  0  0  0  0
   55.6693   -7.7392   -3.1999 N   0  0  0  0  0  0  0  0  0  0  0  0
   54.2695   -7.3566   -2.9932 C   0  0  0  0  0  0  0  0  0  0  0  0
   53.8782   -6.0887   -3.6663 C   0  0  0  0  0  0  0  0  0  0  0  0
   51.9102   -5.1822   -6.0370 C   0  0  0  0  0  0  0  0  0  0  0  0
   51.3261   -4.3586   -7.0239 C   0  0  0  0  0  0  0  0  0  0  0  0
   49.9292   -4.1403   -7.0503 N   0  0  0  0  0  0  0  0  0  0  0  0
   52.0898   -3.7818   -7.9382 N   0  0  0  0  0  0  0  0  0  0  0  0
   53.4213   -3.9976   -7.8998 C   0  0  0  0  0  0  0  0  0  0  0  0
   53.9741   -4.7769   -6.9710 N   0  0  0  0  0  0  0  0  0  0  0  0
   53.2388   -5.4182   -5.9815 C   0  0  0  0  0  0  0  0  0  0  0  0
   49.5747   -3.1582   -7.2024 H   0  0  0  0  0  0  0  0  0  0  0  0
   49.2228   -4.9167   -6.9329 H   0  0  0  0  0  0  0  0  0  0  0  0
   51.0031   -5.7199   -5.1373 O   0  0  0  0  0  0  0  0  0  0  0  0
   49.3511   -4.7872   -3.6785 C   0  0  0  0  0  0  0  0  0  0  0  0
   50.8112   -5.1389   -3.8556 C   0  0  0  0  0  0  0  0  0  0  0  0
   56.4661   -7.1067   -2.1672 C   0  0  0  0  0  0  0  0  0  0  0  0
   57.6518   -7.9024   -1.8078 C   0  0  0  0  0  0  0  0  0  0  0  0
   58.9057   -7.4070   -2.1118 C   0  0  0  0  0  0  0  0  0  0  0  0
   60.0529   -8.1585   -1.8991 C   0  0  0  0  0  0  0  0  0  0  0  0
   59.9606   -9.4304   -1.3791 C   0  0  0  0  0  0  0  0  0  0  0  0
   58.7310   -9.9541   -1.0605 C   0  0  0  0  0  0  0  0  0  0  0  0
   57.6015   -9.1626   -1.2880 C   0  0  0  0  0  0  0  0  0  0  0  0
   61.1819  -10.2548   -1.2082 C   0  0  0  0  0  0  0  0  0  0  0  0
   60.7769  -11.4366   -0.5466 F   0  0  0  0  0  0  0  0  0  0  0  0
   62.1327   -9.6657   -0.4115 F   0  0  0  0  0  0  0  0  0  0  0  0
   61.6881  -10.6731   -2.4159 F   0  0  0  0  0  0  0  0  0  0  0  0
   57.0365   -5.8121   -2.7885 C   0  0  0  0  0  0  0  0  0  0  0  0
   56.7135   -4.6398   -2.0563 N   0  0  0  0  0  0  0  0  0  0  0  0
   55.8973   -4.1511   -2.4415 H   0  0  0  0  0  0  0  0  0  0  0  0
   57.5195   -4.0537   -1.8138 H   0  0  0  0  0  0  0  0  0  0  0  0
 17 18  1  0  0  0
 18 16  1  0  0  0
 16  7  1  0  0  0
  7  8  2  0  0  0
  8  9  1  0  0  0
  8 10  1  0  0  0
 10 11  2  0  0  0
 11 12  1  0  0  0
 12 13  2  0  0  0
 13  1  1  0  0  0
  1  2  1  0  0  0
  2  3  1  0  0  0
  3  4  1  0  0  0
  4 19  1  0  0  0
 19 30  1  0  0  0
 30 31  1  0  0  0
 19 20  1  0  0  0
 20 21  2  0  0  0
 21 22  1  0  0  0
 22 23  2  0  0  0
 23 26  1  0  0  0
 26 27  1  0  0  0
 26 28  1  0  0  0
 26 29  1  0  0  0
 23 24  1  0  0  0
 24 25  2  0  0  0
  4  5  1  0  0  0
  5  6  1  0  0  0
 13  7  1  0  0  0
  6  1  1  0  0  0
 25 20  1  0  0  0
  9 14  1  0  0  0
  9 15  1  0  0  0
 31 32  1  0  0  0
 31 33  1  0  0  0
M  END
> <minimizedAffinity>
-6.13433

> <CNNscore>
0.1324169934

> <CNNaffinity>
5.6038503647

> <CNN_VS>
0.7420450449

> <CNNaffinity_variance>
0.3223229051

$$$$
[H]OC(=O)[C@@]([H])(Oc1c(Br)c([H])c(-c2c([H])c([H])c(-c3c(C([H])([H])c4c([H])c([H])c([H])c([H])c4[H])oc4c([H])c([H])c([H])c([H])c34)c([H])c2[H])c([H])c1Br)C([H])([H])c1c([H])c([H])c([H])c([H])c1[H]


 43 48  0  0  0  0  0  0  0  0999 V2000
   56.7174   -4.7017   -9.4747 C   0  0  0  0  0  0  0  0  0  0  0  0
   55.4941   -4.1284   -9.1866 C   0  0  0  0  0  0  0  0  0  0  0  0
   54.9375   -4.3645   -7.9563 C   0  0  0  0  0  0  0  0  0  0  0  0
   55.5061   -5.1365   -6.9719 C   0  0  0  0  0  0  0  0  0  0  0  0
   56.7486   -5.6995   -7.3042 C   0  0  0  0  0  0  0  0  0  0  0  0
   57.3270   -5.4824   -8.5210 C   0  0  0  0  0  0  0  0  0  0  0  0
   54.9097   -5.4158   -5.6797 C   0  0  0  0  0  0  0  0  0  0  0  0
   53.6818   -5.1571   -5.1924 C   0  0  0  0  0  0  0  0  0  0  0  0
   53.6199   -5.5755   -3.9258 O   0  0  0  0  0  0  0  0  0  0  0  0
   54.7550   -6.1037   -3.5482 C   0  0  0  0  0  0  0  0  0  0  0  0
   55.1857   -6.6651   -2.3664 C   0  0  0  0  0  0  0  0  0  0  0  0
   56.4654   -7.1598   -2.2320 C   0  0  0  0  0  0  0  0  0  0  0  0
   57.3008   -7.0729   -3.3254 C   0  0  0  0  0  0  0  0  0  0  0  0
   56.8759   -6.5069   -4.5246 C   0  0  0  0  0  0  0  0  0  0  0  0
   55.6111   -6.0303   -4.6206 C   0  0  0  0  0  0  0  0  0  0  0  0
   52.5091   -4.5308   -5.8378 C   0  0  0  0  0  0  0  0  0  0  0  0
   51.6547   -5.5434   -6.4867 C   0  0  0  0  0  0  0  0  0  0  0  0
   50.3548   -5.8081   -6.1863 C   0  0  0  0  0  0  0  0  0  0  0  0
   49.6256   -6.7968   -6.8662 C   0  0  0  0  0  0  0  0  0  0  0  0
   50.2065   -7.5369   -7.8661 C   0  0  0  0  0  0  0  0  0  0  0  0
   51.5218   -7.2856   -8.1867 C   0  0  0  0  0  0  0  0  0  0  0  0
   52.2289   -6.3094   -7.5112 C   0  0  0  0  0  0  0  0  0  0  0  0
   58.6162   -4.1327  -13.2868 C   0  0  0  0  0  0  0  0  0  0  0  0
   59.3471   -4.5256  -12.1575 C   0  0  0  0  0  0  0  0  0  0  0  0
   61.2137   -4.8247  -12.3576 Br  0  0  0  0  0  0  0  0  0  0  0  0
   58.7337   -4.7058  -10.9334 C   0  0  0  0  0  0  0  0  0  0  0  0
   57.3841   -4.5126  -10.7578 C   0  0  0  0  0  0  0  0  0  0  0  0
   56.6496   -4.1238  -11.8679 C   0  0  0  0  0  0  0  0  0  0  0  0
   57.2770   -3.9397  -13.1075 C   0  0  0  0  0  0  0  0  0  0  0  0
   56.1368   -3.3029  -14.5266 Br  0  0  0  0  0  0  0  0  0  0  0  0
   59.2195   -3.9458  -14.5019 O   0  0  0  0  0  0  0  0  0  0  0  0
   59.9407   -2.7998  -14.9322 C   0  0  0  0  0  0  0  0  0  0  0  0
   58.9310   -3.1071  -17.1176 O   0  0  0  0  0  0  0  0  0  0  0  0
   59.2718   -2.3446  -16.1708 C   0  0  0  0  0  0  0  0  0  0  0  0
   58.9673   -1.0024  -16.3638 O   0  0  0  0  0  0  0  0  0  0  0  0
   59.6040   -0.2639  -16.5139 H   0  0  0  0  0  0  0  0  0  0  0  0
   61.4049   -3.1001  -15.2067 C   0  0  0  0  0  0  0  0  0  0  0  0
   62.3455   -2.2228  -14.4852 C   0  0  0  0  0  0  0  0  0  0  0  0
   63.6913   -2.1847  -14.8978 C   0  0  0  0  0  0  0  0  0  0  0  0
   64.5637   -1.3378  -14.2424 C   0  0  0  0  0  0  0  0  0  0  0  0
   64.1562   -0.5286  -13.1955 C   0  0  0  0  0  0  0  0  0  0  0  0
   62.8252   -0.6010  -12.8266 C   0  0  0  0  0  0  0  0  0  0  0  0
   61.9251   -1.4284  -13.4515 C   0  0  0  0  0  0  0  0  0  0  0  0
 33 34  2  0  0  0
 34 35  1  0  0  0
 34 32  1  0  0  0
 32 37  1  0  0  0
 37 38  1  0  0  0
 38 39  2  0  0  0
 39 40  1  0  0  0
 40 41  2  0  0  0
 41 42  1  0  0  0
 42 43  2  0  0  0
 32 31  1  0  0  0
 31 23  1  0  0  0
 23 24  2  0  0  0
 24 25  1  0  0  0
 24 26  1  0  0  0
 26 27  2  0  0  0
 27  1  1  0  0  0
  1  2  2  0  0  0
  2  3  1  0  0  0
  3  4  2  0  0  0
  4  7  1  0  0  0
  7  8  2  0  0  0
  8 16  1  0  0  0
 16 17  1  0  0  0
 17 18  2  0  0  0
 18 19  1  0  0  0
 19 20  2  0  0  0
 20 21  1  0  0  0
 21 22  2  0  0  0
  8  9  1  0  0  0
  9 10  1  0  0  0
 10 11  2  0  0  0
 11 12  1  0  0  0
 12 13  2  0  0  0
 13 14  1  0  0  0
 14 15  2  0  0  0
  4  5  1  0  0  0
  5  6  2  0  0  0
 27 28  1  0  0  0
 28 29  2  0  0  0
 29 30  1  0  0  0
 43 38  1  0  0  0
 29 23  1  0  0  0
  6  1  1  0  0  0
 15  7  1  0  0  0
 22 17  1  0  0  0
 15 10  1  0  0  0
 35 36  1  0  0  0
M  END
> <minimizedAffinity>
-5.77147

> <CNNscore>
0.2569472492

> <CNNaffinity>
6.9298033714

> <CNN_VS>
1.7805938721

> <CNNaffinity_variance>
0.2893796861

$$$$
[H]OC(=O)[C@@]([H])(Oc1c(Br)c([H])c(-c2c([H])c([H])c(-c3c(C([H])([H])c4c([H])c([H])c([H])c([H])c4[H])oc4c([H])c([H])c([H])c([H])c34)c([H])c2[H])c([H])c1Br)C([H])([H])c1c([H])c([H])c([H])c([H])c1[H]


 43 48  0  0  0  0  0  0  0  0999 V2000
   56.7231   -4.2828  -11.1321 C   0  0  0  0  0  0  0  0  0  0  0  0
   57.4649   -4.8031  -10.0896 C   0  0  0  0  0  0  0  0  0  0  0  0
   56.8324   -5.0473   -8.8982 C   0  0  0  0  0  0  0  0  0  0  0  0
   55.5006   -4.8130   -8.6533 C   0  0  0  0  0  0  0  0  0  0  0  0
   54.7827   -4.2855   -9.7384 C   0  0  0  0  0  0  0  0  0  0  0  0
   55.3854   -4.0319  -10.9362 C   0  0  0  0  0  0  0  0  0  0  0  0
   54.8311   -5.0400   -7.3870 C   0  0  0  0  0  0  0  0  0  0  0  0
   53.5794   -4.7578   -6.9796 C   0  0  0  0  0  0  0  0  0  0  0  0
   53.4442   -5.1268   -5.7035 O   0  0  0  0  0  0  0  0  0  0  0  0
   54.5531   -5.6447   -5.2428 C   0  0  0  0  0  0  0  0  0  0  0  0
   54.9134   -6.1619   -4.0181 C   0  0  0  0  0  0  0  0  0  0  0  0
   56.1805   -6.6562   -3.7932 C   0  0  0  0  0  0  0  0  0  0  0  0
   57.0763   -6.6148   -4.8404 C   0  0  0  0  0  0  0  0  0  0  0  0
   56.7228   -6.0937   -6.0823 C   0  0  0  0  0  0  0  0  0  0  0  0
   55.4683   -5.6160   -6.2674 C   0  0  0  0  0  0  0  0  0  0  0  0
   52.4486   -4.1521   -7.7134 C   0  0  0  0  0  0  0  0  0  0  0  0
   51.3195   -3.8651   -6.8084 C   0  0  0  0  0  0  0  0  0  0  0  0
   50.9466   -4.6064   -5.7307 C   0  0  0  0  0  0  0  0  0  0  0  0
   49.8517   -4.2462   -4.9289 C   0  0  0  0  0  0  0  0  0  0  0  0
   49.1135   -3.1230   -5.2093 C   0  0  0  0  0  0  0  0  0  0  0  0
   49.4734   -2.3576   -6.2959 C   0  0  0  0  0  0  0  0  0  0  0  0
   50.5535   -2.7218   -7.0770 C   0  0  0  0  0  0  0  0  0  0  0  0
   58.5174   -3.3987  -14.9347 C   0  0  0  0  0  0  0  0  0  0  0  0
   57.1300   -3.5392  -14.7962 C   0  0  0  0  0  0  0  0  0  0  0  0
   56.0470   -3.3064  -16.3411 Br  0  0  0  0  0  0  0  0  0  0  0  0
   56.5569   -3.8251  -13.5728 C   0  0  0  0  0  0  0  0  0  0  0  0
   57.3096   -3.9848  -12.4336 C   0  0  0  0  0  0  0  0  0  0  0  0
   58.6840   -3.8480  -12.5575 C   0  0  0  0  0  0  0  0  0  0  0  0
   59.2612   -3.5603  -13.8019 C   0  0  0  0  0  0  0  0  0  0  0  0
   61.1887   -3.5001  -13.8269 Br  0  0  0  0  0  0  0  0  0  0  0  0
   59.0925   -3.1218  -16.1464 O   0  0  0  0  0  0  0  0  0  0  0  0
   60.3587   -3.5653  -16.6143 C   0  0  0  0  0  0  0  0  0  0  0  0
   60.2843   -1.4403  -17.7843 O   0  0  0  0  0  0  0  0  0  0  0  0
   60.9487   -2.4139  -17.3317 C   0  0  0  0  0  0  0  0  0  0  0  0
   62.3191   -2.3373  -17.5506 O   0  0  0  0  0  0  0  0  0  0  0  0
   62.8577   -2.9045  -18.1519 H   0  0  0  0  0  0  0  0  0  0  0  0
   60.2514   -4.7632  -17.5432 C   0  0  0  0  0  0  0  0  0  0  0  0
   61.2897   -5.7880  -17.3272 C   0  0  0  0  0  0  0  0  0  0  0  0
   62.4159   -5.4599  -16.5482 C   0  0  0  0  0  0  0  0  0  0  0  0
   63.3714   -6.4307  -16.3192 C   0  0  0  0  0  0  0  0  0  0  0  0
   63.2556   -7.7119  -16.8311 C   0  0  0  0  0  0  0  0  0  0  0  0
   62.1321   -7.9862  -17.5898 C   0  0  0  0  0  0  0  0  0  0  0  0
   61.1589   -7.0509  -17.8410 C   0  0  0  0  0  0  0  0  0  0  0  0
 33 34  2  0  0  0
 34 35  1  0  0  0
 34 32  1  0  0  0
 32 37  1  0  0  0
 37 38  1  0  0  0
 38 39  2  0  0  0
 39 40  1  0  0  0
 40 41  2  0  0  0
 41 42  1  0  0  0
 42 43  2  0  0  0
 32 31  1  0  0  0
 31 23  1  0  0  0
 23 24  2  0  0  0
 24 25  1  0  0  0
 24 26  1  0  0  0
 26 27  2  0  0  0
 27  1  1  0  0  0
  1  2  2  0  0  0
  2  3  1  0  0  0
  3  4  2  0  0  0
  4  7  1  0  0  0
  7  8  2  0  0  0
  8 16  1  0  0  0
 16 17  1  0  0  0
 17 18  2  0  0  0
 18 19  1  0  0  0
 19 20  2  0  0  0
 20 21  1  0  0  0
 21 22  2  0  0  0
  8  9  1  0  0  0
  9 10  1  0  0  0
 10 11  2  0  0  0
 11 12  1  0  0  0
 12 13  2  0  0  0
 13 14  1  0  0  0
 14 15  2  0  0  0
  4  5  1  0  0  0
  5  6  2  0  0  0
 27 28  1  0  0  0
 28 29  2  0  0  0
 29 30  1  0  0  0
 43 38  1  0  0  0
 29 23  1  0  0  0
  6  1  1  0  0  0
 15  7  1  0  0  0
 22 17  1  0  0  0
 15 10  1  0  0  0
 35 36  1  0  0  0
M  END
> <minimizedAffinity>
-10.23826

> <CNNscore>
0.2323533446

> <CNNaffinity>
6.9850020409

> <CNN_VS>
1.6229885817

> <CNNaffinity_variance>
0.1846863776

$$$$
[H]OC(=O)[C@@]([H])(Oc1c(Br)c([H])c(-c2c([H])c([H])c(-c3c(C([H])([H])c4c([H])c([H])c([H])c([H])c4[H])oc4c([H])c([H])c([H])c([H])c34)c([H])c2[H])c([H])c1Br)C([H])([H])c1c([H])c([H])c([H])c([H])c1[H]


 43 48  0  0  0  0  0  0  0  0999 V2000
   60.1260   -6.6290   -9.1821 C   0  0  0  0  0  0  0  0  0  0  0  0
   60.6465   -7.2137  -10.3202 C   0  0  0  0  0  0  0  0  0  0  0  0
   61.7879   -7.9637  -10.2035 C   0  0  0  0  0  0  0  0  0  0  0  0
   62.4663   -8.1845   -9.0290 C   0  0  0  0  0  0  0  0  0  0  0  0
   61.9041   -7.5740   -7.8966 C   0  0  0  0  0  0  0  0  0  0  0  0
   60.7689   -6.8216   -7.9820 C   0  0  0  0  0  0  0  0  0  0  0  0
   63.6908   -8.9511   -8.9024 C   0  0  0  0  0  0  0  0  0  0  0  0
   64.9830   -8.5744   -8.9305 C   0  0  0  0  0  0  0  0  0  0  0  0
   65.7542   -9.6576   -8.8092 O   0  0  0  0  0  0  0  0  0  0  0  0
   65.0305  -10.7414   -8.7001 C   0  0  0  0  0  0  0  0  0  0  0  0
   65.3465  -12.0743   -8.5558 C   0  0  0  0  0  0  0  0  0  0  0  0
   64.3649  -13.0377   -8.4612 C   0  0  0  0  0  0  0  0  0  0  0  0
   63.0526  -12.6185   -8.5158 C   0  0  0  0  0  0  0  0  0  0  0  0
   62.7220  -11.2737   -8.6619 C   0  0  0  0  0  0  0  0  0  0  0  0
   63.7132  -10.3541   -8.7523 C   0  0  0  0  0  0  0  0  0  0  0  0
   65.5847   -7.2309   -9.0609 C   0  0  0  0  0  0  0  0  0  0  0  0
   65.3457   -6.4210   -7.8513 C   0  0  0  0  0  0  0  0  0  0  0  0
   65.1346   -5.0779   -7.8136 C   0  0  0  0  0  0  0  0  0  0  0  0
   64.9154   -4.3976   -6.6051 C   0  0  0  0  0  0  0  0  0  0  0  0
   64.9075   -5.0723   -5.4093 C   0  0  0  0  0  0  0  0  0  0  0  0
   65.1192   -6.4328   -5.4240 C   0  0  0  0  0  0  0  0  0  0  0  0
   65.3329   -7.0913   -6.6198 C   0  0  0  0  0  0  0  0  0  0  0  0
   56.5679   -4.2204   -9.1868 C   0  0  0  0  0  0  0  0  0  0  0  0
   57.1825   -4.6186  -10.3816 C   0  0  0  0  0  0  0  0  0  0  0  0
   56.3859   -4.0810  -12.0218 Br  0  0  0  0  0  0  0  0  0  0  0  0
   58.3271   -5.3913  -10.3762 C   0  0  0  0  0  0  0  0  0  0  0  0
   58.9200   -5.8094   -9.2086 C   0  0  0  0  0  0  0  0  0  0  0  0
   58.3212   -5.4221   -8.0194 C   0  0  0  0  0  0  0  0  0  0  0  0
   57.1611   -4.6356   -8.0299 C   0  0  0  0  0  0  0  0  0  0  0  0
   56.5086   -4.0986   -6.2964 Br  0  0  0  0  0  0  0  0  0  0  0  0
   55.4366   -3.4486   -9.1852 O   0  0  0  0  0  0  0  0  0  0  0  0
   54.1051   -3.8818   -8.9444 C   0  0  0  0  0  0  0  0  0  0  0  0
   52.1686   -2.8314   -9.9625 O   0  0  0  0  0  0  0  0  0  0  0  0
   53.2385   -2.7364   -9.2990 C   0  0  0  0  0  0  0  0  0  0  0  0
   53.5662   -1.4456   -8.9016 O   0  0  0  0  0  0  0  0  0  0  0  0
   54.3167   -0.8952   -9.2291 H   0  0  0  0  0  0  0  0  0  0  0  0
   53.8748   -4.2858   -7.4976 C   0  0  0  0  0  0  0  0  0  0  0  0
   52.5378   -4.8500   -7.2351 C   0  0  0  0  0  0  0  0  0  0  0  0
   52.2966   -6.2007   -7.5517 C   0  0  0  0  0  0  0  0  0  0  0  0
   51.0541   -6.7367   -7.2746 C   0  0  0  0  0  0  0  0  0  0  0  0
   50.0423   -5.9883   -6.6976 C   0  0  0  0  0  0  0  0  0  0  0  0
   50.3269   -4.6668   -6.4048 C   0  0  0  0  0  0  0  0  0  0  0  0
   51.5482   -4.0952   -6.6633 C   0  0  0  0  0  0  0  0  0  0  0  0
 33 34  2  0  0  0
 34 35  1  0  0  0
 34 32  1  0  0  0
 32 37  1  0  0  0
 37 38  1  0  0  0
 38 39  2  0  0  0
 39 40  1  0  0  0
 40 41  2  0  0  0
 41 42  1  0  0  0
 42 43  2  0  0  0
 32 31  1  0  0  0
 31 23  1  0  0  0
 23 24  2  0  0  0
 24 25  1  0  0  0
 24 26  1  0  0  0
 26 27  2  0  0  0
 27  1  1  0  0  0
  1  2  2  0  0  0
  2  3  1  0  0  0
  3  4  2  0  0  0
  4  7  1  0  0  0
  7  8  2  0  0  0
  8 16  1  0  0  0
 16 17  1  0  0  0
 17 18  2  0  0  0
 18 19  1  0  0  0
 19 20  2  0  0  0
 20 21  1  0  0  0
 21 22  2  0  0  0
  8  9  1  0  0  0
  9 10  1  0  0  0
 10 11  2  0  0  0
 11 12  1  0  0  0
 12 13  2  0  0  0
 13 14  1  0  0  0
 14 15  2  0  0  0
  4  5  1  0  0  0
  5  6  2  0  0  0
 27 28  1  0  0  0
 28 29  2  0  0  0
 29 30  1  0  0  0
 43 38  1  0  0  0
 29 23  1  0  0  0
  6  1  1  0  0  0
 15  7  1  0  0  0
 22 17  1  0  0  0
 15 10  1  0  0  0
 35 36  1  0  0  0
M  END
> <minimizedAffinity>
-7.74399

> <CNNscore>
0.2285044491

> <CNNaffinity>
6.5594606400

> <CNN_VS>
1.4988659620

> <CNNaffinity_variance>
0.1917036325

$$$$
[H]OC(=O)[C@@]([H])(Oc1c(Br)c([H])c(-c2c([H])c([H])c(-c3c(C([H])([H])c4c([H])c([H])c([H])c([H])c4[H])oc4c([H])c([H])c([H])c([H])c34)c([H])c2[H])c([H])c1Br)C([H])([H])c1c([H])c([H])c([H])c([H])c1[H]


 43 48  0  0  0  0  0  0  0  0999 V2000
   55.9323   -4.3549  -10.1944 C   0  0  0  0  0  0  0  0  0  0  0  0
   54.6300   -4.0004  -10.4881 C   0  0  0  0  0  0  0  0  0  0  0  0
   53.6888   -4.0980   -9.4963 C   0  0  0  0  0  0  0  0  0  0  0  0
   53.9394   -4.5260   -8.2147 C   0  0  0  0  0  0  0  0  0  0  0  0
   55.2747   -4.8754   -7.9575 C   0  0  0  0  0  0  0  0  0  0  0  0
   56.2332   -4.7888   -8.9249 C   0  0  0  0  0  0  0  0  0  0  0  0
   52.9438   -4.6610   -7.1689 C   0  0  0  0  0  0  0  0  0  0  0  0
   52.8351   -5.5366   -6.1521 C   0  0  0  0  0  0  0  0  0  0  0  0
   51.7145   -5.2778   -5.4737 O   0  0  0  0  0  0  0  0  0  0  0  0
   51.0716   -4.2652   -5.9946 C   0  0  0  0  0  0  0  0  0  0  0  0
   49.8953   -3.6274   -5.6676 C   0  0  0  0  0  0  0  0  0  0  0  0
   49.4322   -2.5565   -6.4019 C   0  0  0  0  0  0  0  0  0  0  0  0
   50.1904   -2.1451   -7.4775 C   0  0  0  0  0  0  0  0  0  0  0  0
   51.3807   -2.7829   -7.8171 C   0  0  0  0  0  0  0  0  0  0  0  0
   51.8053   -3.8328   -7.0731 C   0  0  0  0  0  0  0  0  0  0  0  0
   53.7295   -6.6382   -5.7389 C   0  0  0  0  0  0  0  0  0  0  0  0
   54.6084   -6.2224   -4.6294 C   0  0  0  0  0  0  0  0  0  0  0  0
   55.9651   -6.3147   -4.6026 C   0  0  0  0  0  0  0  0  0  0  0  0
   56.7132   -5.8886   -3.4934 C   0  0  0  0  0  0  0  0  0  0  0  0
   56.0938   -5.3601   -2.3880 C   0  0  0  0  0  0  0  0  0  0  0  0
   54.7207   -5.2572   -2.3935 C   0  0  0  0  0  0  0  0  0  0  0  0
   53.9954   -5.6791   -3.4913 C   0  0  0  0  0  0  0  0  0  0  0  0
   59.0294   -4.1435  -13.1651 C   0  0  0  0  0  0  0  0  0  0  0  0
   59.2888   -4.6145  -11.8710 C   0  0  0  0  0  0  0  0  0  0  0  0
   61.0559   -5.1836  -11.4619 Br  0  0  0  0  0  0  0  0  0  0  0  0
   58.2913   -4.6794  -10.9182 C   0  0  0  0  0  0  0  0  0  0  0  0
   57.0002   -4.2900  -11.1854 C   0  0  0  0  0  0  0  0  0  0  0  0
   56.7306   -3.8222  -12.4627 C   0  0  0  0  0  0  0  0  0  0  0  0
   57.7470   -3.7557  -13.4255 C   0  0  0  0  0  0  0  0  0  0  0  0
   57.2342   -2.9904  -15.1198 Br  0  0  0  0  0  0  0  0  0  0  0  0
   60.0156   -4.0703  -14.1125 O   0  0  0  0  0  0  0  0  0  0  0  0
   61.4107   -3.9243  -13.8863 C   0  0  0  0  0  0  0  0  0  0  0  0
   62.6290   -2.1763  -15.0484 O   0  0  0  0  0  0  0  0  0  0  0  0
   61.7300   -2.5217  -14.2318 C   0  0  0  0  0  0  0  0  0  0  0  0
   61.0278   -1.4690  -13.6572 O   0  0  0  0  0  0  0  0  0  0  0  0
   61.0608   -1.1760  -12.7157 H   0  0  0  0  0  0  0  0  0  0  0  0
   62.2421   -4.8751  -14.7313 C   0  0  0  0  0  0  0  0  0  0  0  0
   63.3031   -5.5749  -13.9834 C   0  0  0  0  0  0  0  0  0  0  0  0
   63.2706   -6.9810  -13.9139 C   0  0  0  0  0  0  0  0  0  0  0  0
   64.2831   -7.6368  -13.2411 C   0  0  0  0  0  0  0  0  0  0  0  0
   65.3250   -6.9556  -12.6350 C   0  0  0  0  0  0  0  0  0  0  0  0
   65.3134   -5.5758  -12.7305 C   0  0  0  0  0  0  0  0  0  0  0  0
   64.3269   -4.8851  -13.3898 C   0  0  0  0  0  0  0  0  0  0  0  0
 33 34  2  0  0  0
 34 35  1  0  0  0
 34 32  1  0  0  0
 32 37  1  0  0  0
 37 38  1  0  0  0
 38 39  2  0  0  0
 39 40  1  0  0  0
 40 41  2  0  0  0
 41 42  1  0  0  0
 42 43  2  0  0  0
 32 31  1  0  0  0
 31 23  1  0  0  0
 23 24  2  0  0  0
 24 25  1  0  0  0
 24 26  1  0  0  0
 26 27  2  0  0  0
 27  1  1  0  0  0
  1  2  2  0  0  0
  2  3  1  0  0  0
  3  4  2  0  0  0
  4  7  1  0  0  0
  7  8  2  0  0  0
  8 16  1  0  0  0
 16 17  1  0  0  0
 17 18  2  0  0  0
 18 19  1  0  0  0
 19 20  2  0  0  0
 20 21  1  0  0  0
 21 22  2  0  0  0
  8  9  1  0  0  0
  9 10  1  0  0  0
 10 11  2  0  0  0
 11 12  1  0  0  0
 12 13  2  0  0  0
 13 14  1  0  0  0
 14 15  2  0  0  0
  4  5  1  0  0  0
  5  6  2  0  0  0
 27 28  1  0  0  0
 28 29  2  0  0  0
 29 30  1  0  0  0
 43 38  1  0  0  0
 29 23  1  0  0  0
  6  1  1  0  0  0
 15  7  1  0  0  0
 22 17  1  0  0  0
 15 10  1  0  0  0
 35 36  1  0  0  0
M  END
> <minimizedAffinity>
-8.70612

> <CNNscore>
0.2191088200

> <CNNaffinity>
6.9400796890

> <CNN_VS>
1.5206326246

> <CNNaffinity_variance>
0.2504540086

$$$$
[H]OC(=O)[C@@]([H])(Oc1c(Br)c([H])c(-c2c([H])c([H])c(-c3c(C([H])([H])c4c([H])c([H])c([H])c([H])c4[H])oc4c([H])c([H])c([H])c([H])c34)c([H])c2[H])c([H])c1Br)C([H])([H])c1c([H])c([H])c([H])c([H])c1[H]


 43 48  0  0  0  0  0  0  0  0999 V2000
   56.9801   -5.5771   -7.4355 C   0  0  0  0  0  0  0  0  0  0  0  0
   55.8757   -4.7990   -7.7232 C   0  0  0  0  0  0  0  0  0  0  0  0
   54.8135   -4.8299   -6.8572 C   0  0  0  0  0  0  0  0  0  0  0  0
   54.7575   -5.5832   -5.7092 C   0  0  0  0  0  0  0  0  0  0  0  0
   55.8997   -6.3583   -5.4531 C   0  0  0  0  0  0  0  0  0  0  0  0
   56.9720   -6.3481   -6.2970 C   0  0  0  0  0  0  0  0  0  0  0  0
   53.6259   -5.6446   -4.8043 C   0  0  0  0  0  0  0  0  0  0  0  0
   52.3009   -5.6866   -5.0387 C   0  0  0  0  0  0  0  0  0  0  0  0
   51.6531   -5.6970   -3.8711 O   0  0  0  0  0  0  0  0  0  0  0  0
   52.4907   -5.6649   -2.8674 C   0  0  0  0  0  0  0  0  0  0  0  0
   52.3226   -5.6600   -1.5002 C   0  0  0  0  0  0  0  0  0  0  0  0
   53.4033   -5.6223   -0.6451 C   0  0  0  0  0  0  0  0  0  0  0  0
   54.6614   -5.5902   -1.2083 C   0  0  0  0  0  0  0  0  0  0  0  0
   54.8426   -5.5944   -2.5889 C   0  0  0  0  0  0  0  0  0  0  0  0
   53.7572   -5.6314   -3.3993 C   0  0  0  0  0  0  0  0  0  0  0  0
   51.5562   -5.7251   -6.3147 C   0  0  0  0  0  0  0  0  0  0  0  0
   51.0616   -4.3849   -6.6829 C   0  0  0  0  0  0  0  0  0  0  0  0
   49.9618   -3.7676   -6.1736 C   0  0  0  0  0  0  0  0  0  0  0  0
   49.5739   -2.4847   -6.5922 C   0  0  0  0  0  0  0  0  0  0  0  0
   50.2987   -1.8045   -7.5392 C   0  0  0  0  0  0  0  0  0  0  0  0
   51.4161   -2.4106   -8.0684 C   0  0  0  0  0  0  0  0  0  0  0  0
   51.7884   -3.6731   -7.6479 C   0  0  0  0  0  0  0  0  0  0  0  0
   60.4793   -5.7103   -9.9253 C   0  0  0  0  0  0  0  0  0  0  0  0
   59.2647   -5.1959  -10.3985 C   0  0  0  0  0  0  0  0  0  0  0  0
   59.2055   -4.5321  -12.1789 Br  0  0  0  0  0  0  0  0  0  0  0  0
   58.1416   -5.1564   -9.5960 C   0  0  0  0  0  0  0  0  0  0  0  0
   58.1540   -5.6142   -8.2999 C   0  0  0  0  0  0  0  0  0  0  0  0
   59.3503   -6.1255   -7.8196 C   0  0  0  0  0  0  0  0  0  0  0  0
   60.4868   -6.1660   -8.6388 C   0  0  0  0  0  0  0  0  0  0  0  0
   62.0421   -6.9963   -7.8572 Br  0  0  0  0  0  0  0  0  0  0  0  0
   61.5949   -5.7586  -10.7182 O   0  0  0  0  0  0  0  0  0  0  0  0
   61.8791   -6.7049  -11.7392 C   0  0  0  0  0  0  0  0  0  0  0  0
   61.2505   -8.8284  -10.7464 O   0  0  0  0  0  0  0  0  0  0  0  0
   62.1407   -7.9833  -11.0420 C   0  0  0  0  0  0  0  0  0  0  0  0
   63.4304   -8.3378  -10.6645 O   0  0  0  0  0  0  0  0  0  0  0  0
   63.9810   -7.9173   -9.9621 H   0  0  0  0  0  0  0  0  0  0  0  0
   63.0808   -6.3116  -12.5821 C   0  0  0  0  0  0  0  0  0  0  0  0
   62.7356   -5.7979  -13.9207 C   0  0  0  0  0  0  0  0  0  0  0  0
   62.2266   -4.4900  -14.0357 C   0  0  0  0  0  0  0  0  0  0  0  0
   61.9349   -3.9985  -15.2931 C   0  0  0  0  0  0  0  0  0  0  0  0
   62.1269   -4.7505  -16.4396 C   0  0  0  0  0  0  0  0  0  0  0  0
   62.6289   -6.0289  -16.2758 C   0  0  0  0  0  0  0  0  0  0  0  0
   62.9324   -6.5556  -15.0447 C   0  0  0  0  0  0  0  0  0  0  0  0
 33 34  2  0  0  0
 34 35  1  0  0  0
 34 32  1  0  0  0
 32 37  1  0  0  0
 37 38  1  0  0  0
 38 39  2  0  0  0
 39 40  1  0  0  0
 40 41  2  0  0  0
 41 42  1  0  0  0
 42 43  2  0  0  0
 32 31  1  0  0  0
 31 23  1  0  0  0
 23 24  2  0  0  0
 24 25  1  0  0  0
 24 26  1  0  0  0
 26 27  2  0  0  0
 27  1  1  0  0  0
  1  2  2  0  0  0
  2  3  1  0  0  0
  3  4  2  0  0  0
  4  7  1  0  0  0
  7  8  2  0  0  0
  8 16  1  0  0  0
 16 17  1  0  0  0
 17 18  2  0  0  0
 18 19  1  0  0  0
 19 20  2  0  0  0
 20 21  1  0  0  0
 21 22  2  0  0  0
  8  9  1  0  0  0
  9 10  1  0  0  0
 10 11  2  0  0  0
 11 12  1  0  0  0
 12 13  2  0  0  0
 13 14  1  0  0  0
 14 15  2  0  0  0
  4  5  1  0  0  0
  5  6  2  0  0  0
 27 28  1  0  0  0
 28 29  2  0  0  0
 29 30  1  0  0  0
 43 38  1  0  0  0
 29 23  1  0  0  0
  6  1  1  0  0  0
 15  7  1  0  0  0
 22 17  1  0  0  0
 15 10  1  0  0  0
 35 36  1  0  0  0
M  END
> <minimizedAffinity>
-7.05143

> <CNNscore>
0.1933037490

> <CNNaffinity>
6.6468443871

> <CNN_VS>
1.2848598957

> <CNNaffinity_variance>
0.2348396480

$$$$
[H]OC(=O)[C@@]([H])(Oc1c(Br)c([H])c(-c2c([H])c([H])c(-c3c(C([H])([H])c4c([H])c([H])c([H])c([H])c4[H])oc4c([H])c([H])c([H])c([H])c34)c([H])c2[H])c([H])c1Br)C([H])([H])c1c([H])c([H])c([H])c([H])c1[H]


 43 48  0  0  0  0  0  0  0  0999 V2000
   56.4933   -4.1867  -11.2223 C   0  0  0  0  0  0  0  0  0  0  0  0
   57.1540   -4.5923  -10.0791 C   0  0  0  0  0  0  0  0  0  0  0  0
   56.4155   -4.8265   -8.9482 C   0  0  0  0  0  0  0  0  0  0  0  0
   55.0512   -4.6886   -8.8583 C   0  0  0  0  0  0  0  0  0  0  0  0
   54.4183   -4.2761  -10.0418 C   0  0  0  0  0  0  0  0  0  0  0  0
   55.1273   -4.0353  -11.1826 C   0  0  0  0  0  0  0  0  0  0  0  0
   54.2666   -4.9049   -7.6580 C   0  0  0  0  0  0  0  0  0  0  0  0
   54.4992   -5.6588   -6.5672 C   0  0  0  0  0  0  0  0  0  0  0  0
   53.4547   -5.5619   -5.7411 O   0  0  0  0  0  0  0  0  0  0  0  0
   52.5353   -4.7737   -6.2346 C   0  0  0  0  0  0  0  0  0  0  0  0
   51.3033   -4.3615   -5.7768 C   0  0  0  0  0  0  0  0  0  0  0  0
   50.5145   -3.5041   -6.5139 C   0  0  0  0  0  0  0  0  0  0  0  0
   51.0041   -3.0725   -7.7284 C   0  0  0  0  0  0  0  0  0  0  0  0
   52.2480   -3.4832   -8.2008 C   0  0  0  0  0  0  0  0  0  0  0  0
   52.9961   -4.3270   -7.4496 C   0  0  0  0  0  0  0  0  0  0  0  0
   55.6662   -6.4935   -6.2127 C   0  0  0  0  0  0  0  0  0  0  0  0
   56.1747   -6.1546   -4.8700 C   0  0  0  0  0  0  0  0  0  0  0  0
   55.7785   -5.1030   -4.1038 C   0  0  0  0  0  0  0  0  0  0  0  0
   56.3266   -4.8663   -2.8330 C   0  0  0  0  0  0  0  0  0  0  0  0
   57.2908   -5.6964   -2.3169 C   0  0  0  0  0  0  0  0  0  0  0  0
   57.7069   -6.7674   -3.0756 C   0  0  0  0  0  0  0  0  0  0  0  0
   57.1594   -6.9906   -4.3245 C   0  0  0  0  0  0  0  0  0  0  0  0
   58.6211   -3.3571  -14.8618 C   0  0  0  0  0  0  0  0  0  0  0  0
   57.2311   -3.5346  -14.8520 C   0  0  0  0  0  0  0  0  0  0  0  0
   56.2959   -3.3773  -16.4996 Br  0  0  0  0  0  0  0  0  0  0  0  0
   56.5507   -3.8029  -13.6806 C   0  0  0  0  0  0  0  0  0  0  0  0
   57.1943   -3.9083  -12.4704 C   0  0  0  0  0  0  0  0  0  0  0  0
   58.5700   -3.7344  -12.4668 C   0  0  0  0  0  0  0  0  0  0  0  0
   59.2564   -3.4649  -13.6587 C   0  0  0  0  0  0  0  0  0  0  0  0
   61.1751   -3.3485  -13.5015 Br  0  0  0  0  0  0  0  0  0  0  0  0
   59.3025   -3.0975  -16.0210 O   0  0  0  0  0  0  0  0  0  0  0  0
   60.5624   -3.6268  -16.4102 C   0  0  0  0  0  0  0  0  0  0  0  0
   62.5233   -2.3371  -17.0278 O   0  0  0  0  0  0  0  0  0  0  0  0
   61.2749   -2.5178  -17.0818 C   0  0  0  0  0  0  0  0  0  0  0  0
   60.5821   -1.5821  -17.8408 O   0  0  0  0  0  0  0  0  0  0  0  0
   59.9572   -0.8938  -17.5105 H   0  0  0  0  0  0  0  0  0  0  0  0
   60.4322   -4.8129  -17.3512 C   0  0  0  0  0  0  0  0  0  0  0  0
   61.3894   -5.9023  -17.0834 C   0  0  0  0  0  0  0  0  0  0  0  0
   61.2975   -7.0878  -17.8379 C   0  0  0  0  0  0  0  0  0  0  0  0
   62.2153   -8.0942  -17.6089 C   0  0  0  0  0  0  0  0  0  0  0  0
   63.2190   -7.9731  -16.6629 C   0  0  0  0  0  0  0  0  0  0  0  0
   63.2686   -6.7905  -15.9473 C   0  0  0  0  0  0  0  0  0  0  0  0
   62.3766   -5.7654  -16.1438 C   0  0  0  0  0  0  0  0  0  0  0  0
 33 34  2  0  0  0
 34 35  1  0  0  0
 34 32  1  0  0  0
 32 37  1  0  0  0
 37 38  1  0  0  0
 38 39  2  0  0  0
 39 40  1  0  0  0
 40 41  2  0  0  0
 41 42  1  0  0  0
 42 43  2  0  0  0
 32 31  1  0  0  0
 31 23  1  0  0  0
 23 24  2  0  0  0
 24 25  1  0  0  0
 24 26  1  0  0  0
 26 27  2  0  0  0
 27  1  1  0  0  0
  1  2  2  0  0  0
  2  3  1  0  0  0
  3  4  2  0  0  0
  4  7  1  0  0  0
  7  8  2  0  0  0
  8 16  1  0  0  0
 16 17  1  0  0  0
 17 18  2  0  0  0
 18 19  1  0  0  0
 19 20  2  0  0  0
 20 21  1  0  0  0
 21 22  2  0  0  0
  8  9  1  0  0  0
  9 10  1  0  0  0
 10 11  2  0  0  0
 11 12  1  0  0  0
 12 13  2  0  0  0
 13 14  1  0  0  0
 14 15  2  0  0  0
  4  5  1  0  0  0
  5  6  2  0  0  0
 27 28  1  0  0  0
 28 29  2  0  0  0
 29 30  1  0  0  0
 43 38  1  0  0  0
 29 23  1  0  0  0
  6  1  1  0  0  0
 15  7  1  0  0  0
 22 17  1  0  0  0
 15 10  1  0  0  0
 35 36  1  0  0  0
M  END
> <minimizedAffinity>
-9.01066

> <CNNscore>
0.1904937178

> <CNNaffinity>
6.8780770302

> <CNN_VS>
1.3102304935

> <CNNaffinity_variance>
0.1400712430

$$$$
[H]OC(=O)[C@@]([H])(Oc1c(Br)c([H])c(-c2c([H])c([H])c(-c3c(C([H])([H])c4c([H])c([H])c([H])c([H])c4[H])oc4c([H])c([H])c([H])c([H])c34)c([H])c2[H])c([H])c1Br)C([H])([H])c1c([H])c([H])c([H])c([H])c1[H]


 43 48  0  0  0  0  0  0  0  0999 V2000
   56.3692   -4.2479  -11.1621 C   0  0  0  0  0  0  0  0  0  0  0  0
   55.0250   -3.9663  -11.0142 C   0  0  0  0  0  0  0  0  0  0  0  0
   54.4459   -4.1778   -9.7899 C   0  0  0  0  0  0  0  0  0  0  0  0
   55.1038   -4.6542   -8.6814 C   0  0  0  0  0  0  0  0  0  0  0  0
   56.4676   -4.9267   -8.8737 C   0  0  0  0  0  0  0  0  0  0  0  0
   57.0713   -4.7262  -10.0810 C   0  0  0  0  0  0  0  0  0  0  0  0
   54.4917   -4.9094   -7.3917 C   0  0  0  0  0  0  0  0  0  0  0  0
   53.2498   -4.6658   -6.9328 C   0  0  0  0  0  0  0  0  0  0  0  0
   53.1757   -5.0480   -5.6555 O   0  0  0  0  0  0  0  0  0  0  0  0
   54.3161   -5.5377   -5.2434 C   0  0  0  0  0  0  0  0  0  0  0  0
   54.7390   -6.0538   -4.0384 C   0  0  0  0  0  0  0  0  0  0  0  0
   56.0274   -6.5138   -3.8680 C   0  0  0  0  0  0  0  0  0  0  0  0
   56.8794   -6.4392   -4.9494 C   0  0  0  0  0  0  0  0  0  0  0  0
   56.4624   -5.9191   -6.1719 C   0  0  0  0  0  0  0  0  0  0  0  0
   55.1887   -5.4756   -6.3031 C   0  0  0  0  0  0  0  0  0  0  0  0
   52.0743   -4.0867   -7.6161 C   0  0  0  0  0  0  0  0  0  0  0  0
   50.9958   -3.7847   -6.6559 C   0  0  0  0  0  0  0  0  0  0  0  0
   50.1954   -2.6851   -6.6679 C   0  0  0  0  0  0  0  0  0  0  0  0
   49.1926   -2.4902   -5.7046 C   0  0  0  0  0  0  0  0  0  0  0  0
   48.9853   -3.4119   -4.7084 C   0  0  0  0  0  0  0  0  0  0  0  0
   49.7842   -4.5329   -4.6771 C   0  0  0  0  0  0  0  0  0  0  0  0
   50.7672   -4.7142   -5.6312 C   0  0  0  0  0  0  0  0  0  0  0  0
   58.3716   -3.7071  -14.9250 C   0  0  0  0  0  0  0  0  0  0  0  0
   59.0802   -3.7269  -13.7162 C   0  0  0  0  0  0  0  0  0  0  0  0
   60.9697   -3.5280  -13.7816 Br  0  0  0  0  0  0  0  0  0  0  0  0
   58.4331   -3.8991  -12.5085 C   0  0  0  0  0  0  0  0  0  0  0  0
   57.0703   -4.0606  -12.4270 C   0  0  0  0  0  0  0  0  0  0  0  0
   56.3577   -4.0431  -13.6165 C   0  0  0  0  0  0  0  0  0  0  0  0
   57.0187   -3.8654  -14.8396 C   0  0  0  0  0  0  0  0  0  0  0  0
   55.8775   -3.7651  -16.3910 Br  0  0  0  0  0  0  0  0  0  0  0  0
   59.0066   -3.5300  -16.1254 O   0  0  0  0  0  0  0  0  0  0  0  0
   59.7150   -2.3765  -16.5570 C   0  0  0  0  0  0  0  0  0  0  0  0
   57.6511   -1.8640  -17.7265 O   0  0  0  0  0  0  0  0  0  0  0  0
   58.6978   -1.4732  -17.1384 C   0  0  0  0  0  0  0  0  0  0  0  0
   58.8434   -0.0932  -17.0616 O   0  0  0  0  0  0  0  0  0  0  0  0
   59.5101    0.4614  -17.5320 H   0  0  0  0  0  0  0  0  0  0  0  0
   60.7821   -2.6988  -17.5899 C   0  0  0  0  0  0  0  0  0  0  0  0
   62.0315   -3.2346  -17.0183 C   0  0  0  0  0  0  0  0  0  0  0  0
   62.9669   -2.3366  -16.4692 C   0  0  0  0  0  0  0  0  0  0  0  0
   64.1215   -2.8424  -15.9046 C   0  0  0  0  0  0  0  0  0  0  0  0
   64.3859   -4.2008  -15.8627 C   0  0  0  0  0  0  0  0  0  0  0  0
   63.4375   -5.0428  -16.4145 C   0  0  0  0  0  0  0  0  0  0  0  0
   62.2769   -4.5818  -16.9849 C   0  0  0  0  0  0  0  0  0  0  0  0
 33 34  2  0  0  0
 34 35  1  0  0  0
 34 32  1  0  0  0
 32 37  1  0  0  0
 37 38  1  0  0  0
 38 39  2  0  0  0
 39 40  1  0  0  0
 40 41  2  0  0  0
 41 42  1  0  0  0
 42 43  2  0  0  0
 32 31  1  0  0  0
 31 23  1  0  0  0
 23 24  2  0  0  0
 24 25  1  0  0  0
 24 26  1  0  0  0
 26 27  2  0  0  0
 27  1  1  0  0  0
  1  2  2  0  0  0
  2  3  1  0  0  0
  3  4  2  0  0  0
  4  7  1  0  0  0
  7  8  2  0  0  0
  8 16  1  0  0  0
 16 17  1  0  0  0
 17 18  2  0  0  0
 18 19  1  0  0  0
 19 20  2  0  0  0
 20 21  1  0  0  0
 21 22  2  0  0  0
  8  9  1  0  0  0
  9 10  1  0  0  0
 10 11  2  0  0  0
 11 12  1  0  0  0
 12 13  2  0  0  0
 13 14  1  0  0  0
 14 15  2  0  0  0
  4  5  1  0  0  0
  5  6  2  0  0  0
 27 28  1  0  0  0
 28 29  2  0  0  0
 29 30  1  0  0  0
 43 38  1  0  0  0
 29 23  1  0  0  0
  6  1  1  0  0  0
 15  7  1  0  0  0
 22 17  1  0  0  0
 15 10  1  0  0  0
 35 36  1  0  0  0
M  END
> <minimizedAffinity>
-9.92050

> <CNNscore>
0.1903617829

> <CNNaffinity>
6.8491163254

> <CNN_VS>
1.3038100004

> <CNNaffinity_variance>
0.1670566946

$$$$
[H]OC(=O)[C@@]([H])(Oc1c(Br)c([H])c(-c2c([H])c([H])c(-c3c(C([H])([H])c4c([H])c([H])c([H])c([H])c4[H])oc4c([H])c([H])c([H])c([H])c34)c([H])c2[H])c([H])c1Br)C([H])([H])c1c([H])c([H])c([H])c([H])c1[H]


 43 48  0  0  0  0  0  0  0  0999 V2000
   56.1905   -4.8223   -8.8312 C   0  0  0  0  0  0  0  0  0  0  0  0
   54.9056   -4.3430   -8.6653 C   0  0  0  0  0  0  0  0  0  0  0  0
   54.2900   -4.5344   -7.4556 C   0  0  0  0  0  0  0  0  0  0  0  0
   54.8556   -5.1738   -6.3787 C   0  0  0  0  0  0  0  0  0  0  0  0
   56.1616   -5.6444   -6.5883 C   0  0  0  0  0  0  0  0  0  0  0  0
   56.7997   -5.4687   -7.7816 C   0  0  0  0  0  0  0  0  0  0  0  0
   54.2000   -5.4070   -5.1063 C   0  0  0  0  0  0  0  0  0  0  0  0
   52.9241   -5.7147   -4.8064 C   0  0  0  0  0  0  0  0  0  0  0  0
   52.7961   -5.7918   -3.4795 O   0  0  0  0  0  0  0  0  0  0  0  0
   53.9336   -5.5496   -2.8816 C   0  0  0  0  0  0  0  0  0  0  0  0
   54.3119   -5.5095   -1.5577 C   0  0  0  0  0  0  0  0  0  0  0  0
   55.6095   -5.2223   -1.1912 C   0  0  0  0  0  0  0  0  0  0  0  0
   56.5174   -4.9766   -2.1993 C   0  0  0  0  0  0  0  0  0  0  0  0
   56.1456   -5.0141   -3.5407 C   0  0  0  0  0  0  0  0  0  0  0  0
   54.8610   -5.2993   -3.8642 C   0  0  0  0  0  0  0  0  0  0  0  0
   51.7659   -5.9589   -5.6913 C   0  0  0  0  0  0  0  0  0  0  0  0
   50.8669   -4.7898   -5.7259 C   0  0  0  0  0  0  0  0  0  0  0  0
   49.9475   -4.4563   -4.7806 C   0  0  0  0  0  0  0  0  0  0  0  0
   49.1366   -3.3171   -4.9074 C   0  0  0  0  0  0  0  0  0  0  0  0
   49.2454   -2.4943   -6.0011 C   0  0  0  0  0  0  0  0  0  0  0  0
   50.1699   -2.8129   -6.9706 C   0  0  0  0  0  0  0  0  0  0  0  0
   50.9629   -3.9362   -6.8341 C   0  0  0  0  0  0  0  0  0  0  0  0
   58.4116   -4.3965  -12.4845 C   0  0  0  0  0  0  0  0  0  0  0  0
   57.0543   -4.0560  -12.4104 C   0  0  0  0  0  0  0  0  0  0  0  0
   56.2147   -3.3743  -13.9738 Br  0  0  0  0  0  0  0  0  0  0  0  0
   56.3431   -4.1958  -11.2349 C   0  0  0  0  0  0  0  0  0  0  0  0
   56.9232   -4.6713  -10.0830 C   0  0  0  0  0  0  0  0  0  0  0  0
   58.2662   -5.0117  -10.1433 C   0  0  0  0  0  0  0  0  0  0  0  0
   58.9831   -4.8704  -11.3393 C   0  0  0  0  0  0  0  0  0  0  0  0
   60.8121   -5.4796  -11.2856 Br  0  0  0  0  0  0  0  0  0  0  0  0
   59.1208   -4.2666  -13.6488 O   0  0  0  0  0  0  0  0  0  0  0  0
   59.8584   -3.1312  -14.0797 C   0  0  0  0  0  0  0  0  0  0  0  0
   59.0318   -3.6953  -16.2907 O   0  0  0  0  0  0  0  0  0  0  0  0
   59.3661   -2.8238  -15.4405 C   0  0  0  0  0  0  0  0  0  0  0  0
   59.2363   -1.5087  -15.8708 O   0  0  0  0  0  0  0  0  0  0  0  0
   59.9645   -0.8707  -16.0608 H   0  0  0  0  0  0  0  0  0  0  0  0
   61.3565   -3.3844  -14.1085 C   0  0  0  0  0  0  0  0  0  0  0  0
   62.1724   -2.2166  -13.7268 C   0  0  0  0  0  0  0  0  0  0  0  0
   61.6112   -1.2451  -12.8759 C   0  0  0  0  0  0  0  0  0  0  0  0
   62.3876   -0.1689  -12.4928 C   0  0  0  0  0  0  0  0  0  0  0  0
   63.6961   -0.0171  -12.9190 C   0  0  0  0  0  0  0  0  0  0  0  0
   64.2028   -0.9970  -13.7533 C   0  0  0  0  0  0  0  0  0  0  0  0
   63.4657   -2.0825  -14.1575 C   0  0  0  0  0  0  0  0  0  0  0  0
 33 34  2  0  0  0
 34 35  1  0  0  0
 34 32  1  0  0  0
 32 37  1  0  0  0
 37 38  1  0  0  0
 38 39  2  0  0  0
 39 40  1  0  0  0
 40 41  2  0  0  0
 41 42  1  0  0  0
 42 43  2  0  0  0
 32 31  1  0  0  0
 31 23  1  0  0  0
 23 24  2  0  0  0
 24 25  1  0  0  0
 24 26  1  0  0  0
 26 27  2  0  0  0
 27  1  1  0  0  0
  1  2  2  0  0  0
  2  3  1  0  0  0
  3  4  2  0  0  0
  4  7  1  0  0  0
  7  8  2  0  0  0
  8 16  1  0  0  0
 16 17  1  0  0  0
 17 18  2  0  0  0
 18 19  1  0  0  0
 19 20  2  0  0  0
 20 21  1  0  0  0
 21 22  2  0  0  0
  8  9  1  0  0  0
  9 10  1  0  0  0
 10 11  2  0  0  0
 11 12  1  0  0  0
 12 13  2  0  0  0
 13 14  1  0  0  0
 14 15  2  0  0  0
  4  5  1  0  0  0
  5  6  2  0  0  0
 27 28  1  0  0  0
 28 29  2  0  0  0
 29 30  1  0  0  0
 43 38  1  0  0  0
 29 23  1  0  0  0
  6  1  1  0  0  0
 15  7  1  0  0  0
 22 17  1  0  0  0
 15 10  1  0  0  0
 35 36  1  0  0  0
M  END
> <minimizedAffinity>
-9.71729

> <CNNscore>
0.1891430616

> <CNNaffinity>
6.8054990768

> <CNN_VS>
1.2872129679

> <CNNaffinity_variance>
0.2371606529

$$$$
[H]OC(=O)[C@@]([H])(Oc1c(Br)c([H])c(-c2c([H])c([H])c(-c3c(C([H])([H])c4c([H])c([H])c([H])c([H])c4[H])oc4c([H])c([H])c([H])c([H])c34)c([H])c2[H])c([H])c1Br)C([H])([H])c1c([H])c([H])c([H])c([H])c1[H]


 43 48  0  0  0  0  0  0  0  0999 V2000
   58.7026   -5.4040   -9.5440 C   0  0  0  0  0  0  0  0  0  0  0  0
   59.6934   -6.1222   -8.9032 C   0  0  0  0  0  0  0  0  0  0  0  0
   60.8449   -6.4015   -9.5924 C   0  0  0  0  0  0  0  0  0  0  0  0
   61.0974   -6.0192  -10.8880 C   0  0  0  0  0  0  0  0  0  0  0  0
   60.0662   -5.2909  -11.5023 C   0  0  0  0  0  0  0  0  0  0  0  0
   58.9088   -4.9981  -10.8414 C   0  0  0  0  0  0  0  0  0  0  0  0
   62.3000   -6.3368  -11.6339 C   0  0  0  0  0  0  0  0  0  0  0  0
   63.3015   -7.2000  -11.3808 C   0  0  0  0  0  0  0  0  0  0  0  0
   64.2122   -7.1060  -12.3528 O   0  0  0  0  0  0  0  0  0  0  0  0
   63.8594   -6.2170  -13.2446 C   0  0  0  0  0  0  0  0  0  0  0  0
   64.4447   -5.7649  -14.4066 C   0  0  0  0  0  0  0  0  0  0  0  0
   63.8450   -4.7950  -15.1813 C   0  0  0  0  0  0  0  0  0  0  0  0
   62.6353   -4.2927  -14.7508 C   0  0  0  0  0  0  0  0  0  0  0  0
   62.0350   -4.7423  -13.5776 C   0  0  0  0  0  0  0  0  0  0  0  0
   62.6535   -5.6966  -12.8407 C   0  0  0  0  0  0  0  0  0  0  0  0
   63.4860   -8.1499  -10.2638 C   0  0  0  0  0  0  0  0  0  0  0  0
   63.2466   -9.5384  -10.7009 C   0  0  0  0  0  0  0  0  0  0  0  0
   62.2159  -10.3358  -10.3115 C   0  0  0  0  0  0  0  0  0  0  0  0
   62.0765  -11.6492  -10.7879 C   0  0  0  0  0  0  0  0  0  0  0  0
   62.9856  -12.1776  -11.6708 C   0  0  0  0  0  0  0  0  0  0  0  0
   64.0373  -11.3878  -12.0785 C   0  0  0  0  0  0  0  0  0  0  0  0
   64.1632  -10.0964  -11.6034 C   0  0  0  0  0  0  0  0  0  0  0  0
   55.0143   -4.4303   -7.5667 C   0  0  0  0  0  0  0  0  0  0  0  0
   55.1654   -4.2723   -8.9509 C   0  0  0  0  0  0  0  0  0  0  0  0
   53.6790   -3.6306   -9.9473 Br  0  0  0  0  0  0  0  0  0  0  0  0
   56.3529   -4.5846   -9.5828 C   0  0  0  0  0  0  0  0  0  0  0  0
   57.4418   -5.0647   -8.8945 C   0  0  0  0  0  0  0  0  0  0  0  0
   57.3048   -5.2257   -7.5240 C   0  0  0  0  0  0  0  0  0  0  0  0
   56.0983   -4.9049   -6.8868 C   0  0  0  0  0  0  0  0  0  0  0  0
   56.1007   -5.0899   -4.9672 Br  0  0  0  0  0  0  0  0  0  0  0  0
   53.8416   -4.1160   -6.9331 O   0  0  0  0  0  0  0  0  0  0  0  0
   52.8051   -5.0120   -6.5570 C   0  0  0  0  0  0  0  0  0  0  0  0
   54.0181   -7.1132   -6.6164 O   0  0  0  0  0  0  0  0  0  0  0  0
   53.1783   -6.3234   -7.1312 C   0  0  0  0  0  0  0  0  0  0  0  0
   52.5990   -6.7753   -8.3109 O   0  0  0  0  0  0  0  0  0  0  0  0
   52.7367   -6.4123   -9.2179 H   0  0  0  0  0  0  0  0  0  0  0  0
   51.4433   -4.5807   -7.0755 C   0  0  0  0  0  0  0  0  0  0  0  0
   50.5103   -4.1380   -6.0227 C   0  0  0  0  0  0  0  0  0  0  0  0
   49.7410   -2.9788   -6.2406 C   0  0  0  0  0  0  0  0  0  0  0  0
   48.8436   -2.5841   -5.2677 C   0  0  0  0  0  0  0  0  0  0  0  0
   48.6787   -3.2910   -4.0888 C   0  0  0  0  0  0  0  0  0  0  0  0
   49.4563   -4.4224   -3.9205 C   0  0  0  0  0  0  0  0  0  0  0  0
   50.3594   -4.8498   -4.8622 C   0  0  0  0  0  0  0  0  0  0  0  0
 33 34  2  0  0  0
 34 35  1  0  0  0
 34 32  1  0  0  0
 32 37  1  0  0  0
 37 38  1  0  0  0
 38 39  2  0  0  0
 39 40  1  0  0  0
 40 41  2  0  0  0
 41 42  1  0  0  0
 42 43  2  0  0  0
 32 31  1  0  0  0
 31 23  1  0  0  0
 23 24  2  0  0  0
 24 25  1  0  0  0
 24 26  1  0  0  0
 26 27  2  0  0  0
 27  1  1  0  0  0
  1  2  2  0  0  0
  2  3  1  0  0  0
  3  4  2  0  0  0
  4  7  1  0  0  0
  7  8  2  0  0  0
  8 16  1  0  0  0
 16 17  1  0  0  0
 17 18  2  0  0  0
 18 19  1  0  0  0
 19 20  2  0  0  0
 20 21  1  0  0  0
 21 22  2  0  0  0
  8  9  1  0  0  0
  9 10  1  0  0  0
 10 11  2  0  0  0
 11 12  1  0  0  0
 12 13  2  0  0  0
 13 14  1  0  0  0
 14 15  2  0  0  0
  4  5  1  0  0  0
  5  6  2  0  0  0
 27 28  1  0  0  0
 28 29  2  0  0  0
 29 30  1  0  0  0
 43 38  1  0  0  0
 29 23  1  0  0  0
  6  1  1  0  0  0
 15  7  1  0  0  0
 22 17  1  0  0  0
 15 10  1  0  0  0
 35 36  1  0  0  0
M  END
> <minimizedAffinity>
-7.60269

> <CNNscore>
0.1889583170

> <CNNaffinity>
6.3459343910

> <CNN_VS>
1.1991170645

> <CNNaffinity_variance>
0.2396519482

$$$$
[H]c1c(F)c(C(=O)N([H])S(=O)(=O)C2([H])C([H])([H])C2([H])[H])c([H])c(C2([H])C([H])([H])C2([H])[H])c1OC([H])([H])C1([H])C([H])([H])C([H])([H])C([H])(C(F)(F)F)C([H])([H])C1([H])[H]


 32 35  0  0  0  0  0  0  0  0999 V2000
   57.8756   -5.1678   -9.2823 C   0  0  0  0  0  0  0  0  0  0  0  0
   57.4298   -5.2240   -7.9570 C   0  0  0  0  0  0  0  0  0  0  0  0
   56.2449   -4.7078   -7.5401 C   0  0  0  0  0  0  0  0  0  0  0  0
   55.3708   -4.0641   -8.4581 C   0  0  0  0  0  0  0  0  0  0  0  0
   55.8267   -4.0189   -9.7609 C   0  0  0  0  0  0  0  0  0  0  0  0
   57.0473   -4.5563  -10.1628 C   0  0  0  0  0  0  0  0  0  0  0  0
   57.3912   -4.4433  -11.4491 F   0  0  0  0  0  0  0  0  0  0  0  0
   59.6692   -5.5599  -10.7307 O   0  0  0  0  0  0  0  0  0  0  0  0
   59.1566   -5.7751   -9.5703 C   0  0  0  0  0  0  0  0  0  0  0  0
   59.9226   -6.5813   -8.7261 N   0  0  0  0  0  0  0  0  0  0  0  0
   59.6309   -6.8148   -7.7736 H   0  0  0  0  0  0  0  0  0  0  0  0
   61.4347   -7.2267   -9.2405 S   0  0  0  0  0  0  0  0  0  0  0  0
   62.4362   -6.1146   -9.4406 O   0  0  0  0  0  0  0  0  0  0  0  0
   61.3091   -7.9571  -10.5429 O   0  0  0  0  0  0  0  0  0  0  0  0
   62.0861   -8.3445   -7.9892 C   0  0  0  0  0  0  0  0  0  0  0  0
   63.3349   -7.9653   -7.2621 C   0  0  0  0  0  0  0  0  0  0  0  0
   62.0348   -7.7473   -6.5943 C   0  0  0  0  0  0  0  0  0  0  0  0
   55.7929   -4.7630   -6.1124 C   0  0  0  0  0  0  0  0  0  0  0  0
   54.8382   -5.7707   -5.6391 C   0  0  0  0  0  0  0  0  0  0  0  0
   56.2753   -6.0080   -5.3592 C   0  0  0  0  0  0  0  0  0  0  0  0
   54.2265   -3.5844   -7.9964 O   0  0  0  0  0  0  0  0  0  0  0  0
   52.9462   -3.4578   -8.2320 C   0  0  0  0  0  0  0  0  0  0  0  0
   51.8684   -3.9021   -7.3210 C   0  0  0  0  0  0  0  0  0  0  0  0
   50.5458   -3.1875   -7.5239 C   0  0  0  0  0  0  0  0  0  0  0  0
   49.8856   -3.1378   -6.1747 C   0  0  0  0  0  0  0  0  0  0  0  0
   49.7240   -4.4803   -5.5804 C   0  0  0  0  0  0  0  0  0  0  0  0
   50.5316   -5.6072   -6.0766 C   0  0  0  0  0  0  0  0  0  0  0  0
   51.5883   -5.3236   -7.1047 C   0  0  0  0  0  0  0  0  0  0  0  0
   49.7900   -4.4081   -4.0335 C   0  0  0  0  0  0  0  0  0  0  0  0
   50.9761   -4.8676   -3.5516 F   0  0  0  0  0  0  0  0  0  0  0  0
   49.6655   -3.0843   -3.6341 F   0  0  0  0  0  0  0  0  0  0  0  0
   48.7283   -5.0807   -3.4840 F   0  0  0  0  0  0  0  0  0  0  0  0
  8  9  2  0  0  0
  9 10  1  0  0  0
 10 12  1  0  0  0
 12 13  2  0  0  0
 12 14  2  0  0  0
 12 15  1  0  0  0
 15 16  1  0  0  0
 16 17  1  0  0  0
  9  1  1  0  0  0
  1  2  2  0  0  0
  2  3  1  0  0  0
  3 18  1  0  0  0
 18 19  1  0  0  0
 19 20  1  0  0  0
  3  4  2  0  0  0
  4 21  1  0  0  0
 21 22  1  0  0  0
 22 23  1  0  0  0
 23 24  1  0  0  0
 24 25  1  0  0  0
 25 26  1  0  0  0
 26 29  1  0  0  0
 29 30  1  0  0  0
 29 31  1  0  0  0
 29 32  1  0  0  0
 26 27  1  0  0  0
 27 28  1  0  0  0
  4  5  1  0  0  0
  5  6  2  0  0  0
  6  7  1  0  0  0
 17 15  1  0  0  0
  6  1  1  0  0  0
 20 18  1  0  0  0
 28 23  1  0  0  0
 10 11  1  0  0  0
M  END
> <minimizedAffinity>
-9.87337

> <CNNscore>
0.5455774069

> <CNNaffinity>
7.0901260376

> <CNN_VS>
3.8682124615

> <CNNaffinity_variance>
0.0607298613

$$$$
[H]c1c(F)c(C(=O)N([H])S(=O)(=O)C2([H])C([H])([H])C2([H])[H])c([H])c(C2([H])C([H])([H])C2([H])[H])c1OC([H])([H])C1([H])C([H])([H])C([H])([H])C([H])(C(F)(F)F)C([H])([H])C1([H])[H]


 32 35  0  0  0  0  0  0  0  0999 V2000
   57.2531   -4.4763  -11.0339 C   0  0  0  0  0  0  0  0  0  0  0  0
   56.0768   -3.9884  -10.4538 C   0  0  0  0  0  0  0  0  0  0  0  0
   55.8054   -4.0665   -9.1255 C   0  0  0  0  0  0  0  0  0  0  0  0
   56.7318   -4.6670   -8.2298 C   0  0  0  0  0  0  0  0  0  0  0  0
   57.8867   -5.1417   -8.8198 C   0  0  0  0  0  0  0  0  0  0  0  0
   58.1408   -5.0493  -10.1862 C   0  0  0  0  0  0  0  0  0  0  0  0
   59.2884   -5.5548  -10.6481 F   0  0  0  0  0  0  0  0  0  0  0  0
   58.5741   -4.4669  -12.9636 O   0  0  0  0  0  0  0  0  0  0  0  0
   57.3996   -4.3063  -12.4631 C   0  0  0  0  0  0  0  0  0  0  0  0
   56.4028   -3.9845  -13.3862 N   0  0  0  0  0  0  0  0  0  0  0  0
   55.4260   -3.8449  -13.1155 H   0  0  0  0  0  0  0  0  0  0  0  0
   56.7611   -3.8174  -15.0629 S   0  0  0  0  0  0  0  0  0  0  0  0
   55.6613   -3.0512  -15.7579 O   0  0  0  0  0  0  0  0  0  0  0  0
   56.8757   -5.1500  -15.7386 O   0  0  0  0  0  0  0  0  0  0  0  0
   58.2974   -2.9046  -15.2774 C   0  0  0  0  0  0  0  0  0  0  0  0
   59.3003   -3.4017  -16.2668 C   0  0  0  0  0  0  0  0  0  0  0  0
   58.4160   -2.2843  -16.6580 C   0  0  0  0  0  0  0  0  0  0  0  0
   54.5317   -3.5532   -8.5256 C   0  0  0  0  0  0  0  0  0  0  0  0
   53.9176   -2.2964   -8.9665 C   0  0  0  0  0  0  0  0  0  0  0  0
   53.3455   -3.5580   -9.4967 C   0  0  0  0  0  0  0  0  0  0  0  0
   56.4167   -4.7105   -6.9447 O   0  0  0  0  0  0  0  0  0  0  0  0
   55.8388   -5.4168   -6.0076 C   0  0  0  0  0  0  0  0  0  0  0  0
   54.3770   -5.5788   -5.8477 C   0  0  0  0  0  0  0  0  0  0  0  0
   53.7590   -6.6120   -6.7705 C   0  0  0  0  0  0  0  0  0  0  0  0
   52.3626   -6.1359   -7.0567 C   0  0  0  0  0  0  0  0  0  0  0  0
   51.5772   -5.9299   -5.8228 C   0  0  0  0  0  0  0  0  0  0  0  0
   52.2643   -5.7806   -4.5290 C   0  0  0  0  0  0  0  0  0  0  0  0
   53.7647   -5.7268   -4.5252 C   0  0  0  0  0  0  0  0  0  0  0  0
   50.5372   -4.7970   -6.0161 C   0  0  0  0  0  0  0  0  0  0  0  0
   49.8111   -4.5732   -4.8878 F   0  0  0  0  0  0  0  0  0  0  0  0
   51.2015   -3.6170   -6.3220 F   0  0  0  0  0  0  0  0  0  0  0  0
   49.7287   -5.0764   -7.0884 F   0  0  0  0  0  0  0  0  0  0  0  0
  8  9  2  0  0  0
  9 10  1  0  0  0
 10 12  1  0  0  0
 12 13  2  0  0  0
 12 14  2  0  0  0
 12 15  1  0  0  0
 15 16  1  0  0  0
 16 17  1  0  0  0
  9  1  1  0  0  0
  1  2  2  0  0  0
  2  3  1  0  0  0
  3 18  1  0  0  0
 18 19  1  0  0  0
 19 20  1  0  0  0
  3  4  2  0  0  0
  4 21  1  0  0  0
 21 22  1  0  0  0
 22 23  1  0  0  0
 23 24  1  0  0  0
 24 25  1  0  0  0
 25 26  1  0  0  0
 26 29  1  0  0  0
 29 30  1  0  0  0
 29 31  1  0  0  0
 29 32  1  0  0  0
 26 27  1  0  0  0
 27 28  1  0  0  0
  4  5  1  0  0  0
  5  6  2  0  0  0
  6  7  1  0  0  0
 17 15  1  0  0  0
  6  1  1  0  0  0
 20 18  1  0  0  0
 28 23  1  0  0  0
 10 11  1  0  0  0
M  END
> <minimizedAffinity>
-9.78835

> <CNNscore>
0.5402990580

> <CNNaffinity>
7.0945358276

> <CNN_VS>
3.8331711292

> <CNNaffinity_variance>
0.1204551607

$$$$
[H]c1c(F)c(C(=O)N([H])S(=O)(=O)C2([H])C([H])([H])C2([H])[H])c([H])c(C2([H])C([H])([H])C2([H])[H])c1OC([H])([H])C1([H])C([H])([H])C([H])([H])C([H])(C(F)(F)F)C([H])([H])C1([H])[H]


 32 35  0  0  0  0  0  0  0  0999 V2000
   56.9573   -4.4506  -10.9276 C   0  0  0  0  0  0  0  0  0  0  0  0
   55.7921   -3.8693  -10.4151 C   0  0  0  0  0  0  0  0  0  0  0  0
   55.4604   -3.8857   -9.0983 C   0  0  0  0  0  0  0  0  0  0  0  0
   56.3069   -4.5141   -8.1447 C   0  0  0  0  0  0  0  0  0  0  0  0
   57.4521   -5.0811   -8.6683 C   0  0  0  0  0  0  0  0  0  0  0  0
   57.7691   -5.0507  -10.0243 C   0  0  0  0  0  0  0  0  0  0  0  0
   58.8997   -5.6437  -10.4193 F   0  0  0  0  0  0  0  0  0  0  0  0
   58.3211   -4.7023  -12.8105 O   0  0  0  0  0  0  0  0  0  0  0  0
   57.1748   -4.3379  -12.3533 C   0  0  0  0  0  0  0  0  0  0  0  0
   56.2750   -3.8748  -13.3152 N   0  0  0  0  0  0  0  0  0  0  0  0
   55.3272   -3.5690  -13.0805 H   0  0  0  0  0  0  0  0  0  0  0  0
   56.7084   -3.8056  -14.9810 S   0  0  0  0  0  0  0  0  0  0  0  0
   55.6638   -3.0439  -15.7610 O   0  0  0  0  0  0  0  0  0  0  0  0
   56.8085   -5.1742  -15.5830 O   0  0  0  0  0  0  0  0  0  0  0  0
   58.2808   -2.9514  -15.1743 C   0  0  0  0  0  0  0  0  0  0  0  0
   59.2806   -3.4903  -16.1448 C   0  0  0  0  0  0  0  0  0  0  0  0
   58.4448   -2.3430  -16.5556 C   0  0  0  0  0  0  0  0  0  0  0  0
   54.1988   -3.2722   -8.5714 C   0  0  0  0  0  0  0  0  0  0  0  0
   53.0387   -3.0222   -9.4331 C   0  0  0  0  0  0  0  0  0  0  0  0
   53.0004   -4.2281   -8.5704 C   0  0  0  0  0  0  0  0  0  0  0  0
   55.9357   -4.4946   -6.8741 O   0  0  0  0  0  0  0  0  0  0  0  0
   55.3288   -5.1605   -5.9259 C   0  0  0  0  0  0  0  0  0  0  0  0
   55.8997   -5.4454   -4.5910 C   0  0  0  0  0  0  0  0  0  0  0  0
   54.8676   -5.5880   -3.4885 C   0  0  0  0  0  0  0  0  0  0  0  0
   55.5292   -5.1007   -2.2302 C   0  0  0  0  0  0  0  0  0  0  0  0
   56.7811   -5.8278   -1.9379 C   0  0  0  0  0  0  0  0  0  0  0  0
   57.4625   -6.5794   -3.0052 C   0  0  0  0  0  0  0  0  0  0  0  0
   56.9151   -6.4838   -4.4000 C   0  0  0  0  0  0  0  0  0  0  0  0
   57.7874   -4.9127   -1.1945 C   0  0  0  0  0  0  0  0  0  0  0  0
   57.2745   -4.4300   -0.0309 F   0  0  0  0  0  0  0  0  0  0  0  0
   58.9204   -5.6484   -0.8742 F   0  0  0  0  0  0  0  0  0  0  0  0
   58.2032   -3.8997   -2.0206 F   0  0  0  0  0  0  0  0  0  0  0  0
  8  9  2  0  0  0
  9 10  1  0  0  0
 10 12  1  0  0  0
 12 13  2  0  0  0
 12 14  2  0  0  0
 12 15  1  0  0  0
 15 16  1  0  0  0
 16 17  1  0  0  0
  9  1  1  0  0  0
  1  2  2  0  0  0
  2  3  1  0  0  0
  3 18  1  0  0  0
 18 19  1  0  0  0
 19 20  1  0  0  0
  3  4  2  0  0  0
  4 21  1  0  0  0
 21 22  1  0  0  0
 22 23  1  0  0  0
 23 24  1  0  0  0
 24 25  1  0  0  0
 25 26  1  0  0  0
 26 29  1  0  0  0
 29 30  1  0  0  0
 29 31  1  0  0  0
 29 32  1  0  0  0
 26 27  1  0  0  0
 27 28  1  0  0  0
  4  5  1  0  0  0
  5  6  2  0  0  0
  6  7  1  0  0  0
 17 15  1  0  0  0
  6  1  1  0  0  0
 20 18  1  0  0  0
 28 23  1  0  0  0
 10 11  1  0  0  0
M  END
> <minimizedAffinity>
-8.44396

> <CNNscore>
0.4329108894

> <CNNaffinity>
6.4928960800

> <CNN_VS>
2.8108453751

> <CNNaffinity_variance>
0.1978376061

$$$$
[H]c1c(F)c(C(=O)N([H])S(=O)(=O)C2([H])C([H])([H])C2([H])[H])c([H])c(C2([H])C([H])([H])C2([H])[H])c1OC([H])([H])C1([H])C([H])([H])C([H])([H])C([H])(C(F)(F)F)C([H])([H])C1([H])[H]


 32 35  0  0  0  0  0  0  0  0999 V2000
   57.4167   -4.4529  -10.6171 C   0  0  0  0  0  0  0  0  0  0  0  0
   56.1910   -3.8609  -10.2923 C   0  0  0  0  0  0  0  0  0  0  0  0
   55.6499   -3.8879   -9.0470 C   0  0  0  0  0  0  0  0  0  0  0  0
   56.3227   -4.5397   -7.9777 C   0  0  0  0  0  0  0  0  0  0  0  0
   57.5305   -5.1172   -8.3166 C   0  0  0  0  0  0  0  0  0  0  0  0
   58.0637   -5.0754   -9.6027 C   0  0  0  0  0  0  0  0  0  0  0  0
   59.2358   -5.6801   -9.8176 F   0  0  0  0  0  0  0  0  0  0  0  0
   57.7348   -5.3535  -12.7517 O   0  0  0  0  0  0  0  0  0  0  0  0
   57.8640   -4.3267  -11.9871 C   0  0  0  0  0  0  0  0  0  0  0  0
   58.4288   -3.2041  -12.5955 N   0  0  0  0  0  0  0  0  0  0  0  0
   58.5717   -2.3215  -12.0980 H   0  0  0  0  0  0  0  0  0  0  0  0
   58.9102   -3.2341  -14.2493 S   0  0  0  0  0  0  0  0  0  0  0  0
   59.5852   -4.5454  -14.5728 O   0  0  0  0  0  0  0  0  0  0  0  0
   59.8845   -2.1391  -14.5608 O   0  0  0  0  0  0  0  0  0  0  0  0
   57.4686   -3.0720  -15.3145 C   0  0  0  0  0  0  0  0  0  0  0  0
   56.6672   -4.2914  -15.6355 C   0  0  0  0  0  0  0  0  0  0  0  0
   56.1716   -3.3765  -14.5862 C   0  0  0  0  0  0  0  0  0  0  0  0
   54.3273   -3.2624   -8.7230 C   0  0  0  0  0  0  0  0  0  0  0  0
   53.2186   -3.2504   -9.6830 C   0  0  0  0  0  0  0  0  0  0  0  0
   53.1785   -4.2709   -8.6074 C   0  0  0  0  0  0  0  0  0  0  0  0
   55.7504   -4.5298   -6.7838 O   0  0  0  0  0  0  0  0  0  0  0  0
   55.9534   -4.3772   -5.5008 C   0  0  0  0  0  0  0  0  0  0  0  0
   56.0935   -5.4823   -4.5271 C   0  0  0  0  0  0  0  0  0  0  0  0
   55.7709   -5.0974   -3.0957 C   0  0  0  0  0  0  0  0  0  0  0  0
   56.6450   -5.9551   -2.2246 C   0  0  0  0  0  0  0  0  0  0  0  0
   56.4536   -7.3963   -2.4852 C   0  0  0  0  0  0  0  0  0  0  0  0
   55.8324   -7.8407   -3.7442 C   0  0  0  0  0  0  0  0  0  0  0  0
   55.5163   -6.8041   -4.7833 C   0  0  0  0  0  0  0  0  0  0  0  0
   57.7643   -8.1811   -2.2231 C   0  0  0  0  0  0  0  0  0  0  0  0
   58.5362   -7.5830   -1.2762 F   0  0  0  0  0  0  0  0  0  0  0  0
   57.4491   -9.4510   -1.7591 F   0  0  0  0  0  0  0  0  0  0  0  0
   58.4521   -8.3564   -3.3969 F   0  0  0  0  0  0  0  0  0  0  0  0
  8  9  2  0  0  0
  9 10  1  0  0  0
 10 12  1  0  0  0
 12 13  2  0  0  0
 12 14  2  0  0  0
 12 15  1  0  0  0
 15 16  1  0  0  0
 16 17  1  0  0  0
  9  1  1  0  0  0
  1  2  2  0  0  0
  2  3  1  0  0  0
  3 18  1  0  0  0
 18 19  1  0  0  0
 19 20  1  0  0  0
  3  4  2  0  0  0
  4 21  1  0  0  0
 21 22  1  0  0  0
 22 23  1  0  0  0
 23 24  1  0  0  0
 24 25  1  0  0  0
 25 26  1  0  0  0
 26 29  1  0  0  0
 29 30  1  0  0  0
 29 31  1  0  0  0
 29 32  1  0  0  0
 26 27  1  0  0  0
 27 28  1  0  0  0
  4  5  1  0  0  0
  5  6  2  0  0  0
  6  7  1  0  0  0
 17 15  1  0  0  0
  6  1  1  0  0  0
 20 18  1  0  0  0
 28 23  1  0  0  0
 10 11  1  0  0  0
M  END
> <minimizedAffinity>
-5.96596

> <CNNscore>
0.4097743332

> <CNNaffinity>
6.4791517258

> <CNN_VS>
2.6549901962

> <CNNaffinity_variance>
0.3143206239

$$$$
[H]c1c(F)c(C(=O)N([H])S(=O)(=O)C2([H])C([H])([H])C2([H])[H])c([H])c(C2([H])C([H])([H])C2([H])[H])c1OC([H])([H])C1([H])C([H])([H])C([H])([H])C([H])(C(F)(F)F)C([H])([H])C1([H])[H]


 32 35  0  0  0  0  0  0  0  0999 V2000
   56.8778   -4.4486  -10.7330 C   0  0  0  0  0  0  0  0  0  0  0  0
   55.7078   -3.8670  -10.2320 C   0  0  0  0  0  0  0  0  0  0  0  0
   55.3779   -3.8570   -8.9147 C   0  0  0  0  0  0  0  0  0  0  0  0
   56.2316   -4.4559   -7.9484 C   0  0  0  0  0  0  0  0  0  0  0  0
   57.3814   -5.0237   -8.4609 C   0  0  0  0  0  0  0  0  0  0  0  0
   57.6964   -5.0207   -9.8177 C   0  0  0  0  0  0  0  0  0  0  0  0
   58.8320   -5.6117  -10.2010 F   0  0  0  0  0  0  0  0  0  0  0  0
   58.2231   -4.7774  -12.6174 O   0  0  0  0  0  0  0  0  0  0  0  0
   57.0924   -4.3658  -12.1612 C   0  0  0  0  0  0  0  0  0  0  0  0
   56.2049   -3.8863  -13.1265 N   0  0  0  0  0  0  0  0  0  0  0  0
   55.2696   -3.5436  -12.8928 H   0  0  0  0  0  0  0  0  0  0  0  0
   56.6327   -3.8582  -14.7950 S   0  0  0  0  0  0  0  0  0  0  0  0
   55.5964   -3.0976  -15.5869 O   0  0  0  0  0  0  0  0  0  0  0  0
   56.7102   -5.2404  -15.3686 O   0  0  0  0  0  0  0  0  0  0  0  0
   58.2168   -3.0317  -15.0118 C   0  0  0  0  0  0  0  0  0  0  0  0
   59.1726   -3.5591  -16.0318 C   0  0  0  0  0  0  0  0  0  0  0  0
   58.3498   -2.3812  -16.3772 C   0  0  0  0  0  0  0  0  0  0  0  0
   54.1112   -3.2438   -8.3997 C   0  0  0  0  0  0  0  0  0  0  0  0
   53.0203   -2.8478   -9.2964 C   0  0  0  0  0  0  0  0  0  0  0  0
   52.8770   -4.1360   -8.5752 C   0  0  0  0  0  0  0  0  0  0  0  0
   55.8618   -4.4115   -6.6780 O   0  0  0  0  0  0  0  0  0  0  0  0
   55.8192   -5.0752   -5.5518 C   0  0  0  0  0  0  0  0  0  0  0  0
   54.5806   -5.5248   -4.8789 C   0  0  0  0  0  0  0  0  0  0  0  0
   53.5165   -6.0561   -5.8205 C   0  0  0  0  0  0  0  0  0  0  0  0
   52.1944   -5.7297   -5.1849 C   0  0  0  0  0  0  0  0  0  0  0  0
   52.0771   -6.2829   -3.8204 C   0  0  0  0  0  0  0  0  0  0  0  0
   53.2867   -6.6800   -3.0805 C   0  0  0  0  0  0  0  0  0  0  0  0
   54.6234   -6.3973   -3.7030 C   0  0  0  0  0  0  0  0  0  0  0  0
   51.1753   -5.3826   -2.9380 C   0  0  0  0  0  0  0  0  0  0  0  0
   50.2740   -6.1081   -2.2229 F   0  0  0  0  0  0  0  0  0  0  0  0
   51.9686   -4.6956   -2.0291 F   0  0  0  0  0  0  0  0  0  0  0  0
   50.5577   -4.4319   -3.7102 F   0  0  0  0  0  0  0  0  0  0  0  0
  8  9  2  0  0  0
  9 10  1  0  0  0
 10 12  1  0  0  0
 12 13  2  0  0  0
 12 14  2  0  0  0
 12 15  1  0  0  0
 15 16  1  0  0  0
 16 17  1  0  0  0
  9  1  1  0  0  0
  1  2  2  0  0  0
  2  3  1  0  0  0
  3 18  1  0  0  0
 18 19  1  0  0  0
 19 20  1  0  0  0
  3  4  2  0  0  0
  4 21  1  0  0  0
 21 22  1  0  0  0
 22 23  1  0  0  0
 23 24  1  0  0  0
 24 25  1  0  0  0
 25 26  1  0  0  0
 26 29  1  0  0  0
 29 30  1  0  0  0
 29 31  1  0  0  0
 29 32  1  0  0  0
 26 27  1  0  0  0
 27 28  1  0  0  0
  4  5  1  0  0  0
  5  6  2  0  0  0
  6  7  1  0  0  0
 17 15  1  0  0  0
  6  1  1  0  0  0
 20 18  1  0  0  0
 28 23  1  0  0  0
 10 11  1  0  0  0
M  END
> <minimizedAffinity>
-9.13049

> <CNNscore>
0.4005364776

> <CNNaffinity>
6.8600263596

> <CNN_VS>
2.7476906776

> <CNNaffinity_variance>
0.1474407613

$$$$
[H]c1c(F)c(C(=O)N([H])S(=O)(=O)C2([H])C([H])([H])C2([H])[H])c([H])c(C2([H])C([H])([H])C2([H])[H])c1OC([H])([H])C1([H])C([H])([H])C([H])([H])C([H])(C(F)(F)F)C([H])([H])C1([H])[H]


 32 35  0  0  0  0  0  0  0  0999 V2000
   57.6056   -3.9650  -12.0110 C   0  0  0  0  0  0  0  0  0  0  0  0
   57.6575   -4.4870  -10.7136 C   0  0  0  0  0  0  0  0  0  0  0  0
   56.5723   -4.6006   -9.9052 C   0  0  0  0  0  0  0  0  0  0  0  0
   55.2889   -4.1816  -10.3504 C   0  0  0  0  0  0  0  0  0  0  0  0
   55.2568   -3.6703  -11.6329 C   0  0  0  0  0  0  0  0  0  0  0  0
   56.3855   -3.5642  -12.4421 C   0  0  0  0  0  0  0  0  0  0  0  0
   56.2372   -3.0417  -13.6631 F   0  0  0  0  0  0  0  0  0  0  0  0
   59.8234   -4.6400  -12.3180 O   0  0  0  0  0  0  0  0  0  0  0  0
   58.8477   -3.9217  -12.7513 C   0  0  0  0  0  0  0  0  0  0  0  0
   59.1238   -3.1828  -13.9033 N   0  0  0  0  0  0  0  0  0  0  0  0
   58.4271   -2.5838  -14.3535 H   0  0  0  0  0  0  0  0  0  0  0  0
   60.6721   -3.2500  -14.6555 S   0  0  0  0  0  0  0  0  0  0  0  0
   61.3118   -4.5963  -14.4143 O   0  0  0  0  0  0  0  0  0  0  0  0
   61.5986   -2.2082  -14.1061 O   0  0  0  0  0  0  0  0  0  0  0  0
   60.5047   -3.0231  -16.4331 C   0  0  0  0  0  0  0  0  0  0  0  0
   60.6633   -4.2073  -17.3301 C   0  0  0  0  0  0  0  0  0  0  0  0
   59.2977   -3.7492  -16.9997 C   0  0  0  0  0  0  0  0  0  0  0  0
   56.6516   -5.1467   -8.5119 C   0  0  0  0  0  0  0  0  0  0  0  0
   57.9024   -5.1403   -7.7460 C   0  0  0  0  0  0  0  0  0  0  0  0
   56.9118   -4.0786   -7.4435 C   0  0  0  0  0  0  0  0  0  0  0  0
   54.2661   -4.3210   -9.5215 O   0  0  0  0  0  0  0  0  0  0  0  0
   53.4373   -3.6921   -8.7288 C   0  0  0  0  0  0  0  0  0  0  0  0
   52.5866   -4.3392   -7.7058 C   0  0  0  0  0  0  0  0  0  0  0  0
   51.2090   -3.7214   -7.5583 C   0  0  0  0  0  0  0  0  0  0  0  0
   50.8225   -3.8996   -6.1170 C   0  0  0  0  0  0  0  0  0  0  0  0
   50.8613   -5.3153   -5.6975 C   0  0  0  0  0  0  0  0  0  0  0  0
   51.6236   -6.2966   -6.4877 C   0  0  0  0  0  0  0  0  0  0  0  0
   52.4406   -5.7954   -7.6433 C   0  0  0  0  0  0  0  0  0  0  0  0
   51.2230   -5.4336   -4.1949 C   0  0  0  0  0  0  0  0  0  0  0  0
   50.5300   -4.5460   -3.4321 F   0  0  0  0  0  0  0  0  0  0  0  0
   50.8976   -6.7070   -3.7476 F   0  0  0  0  0  0  0  0  0  0  0  0
   52.5770   -5.2962   -4.0232 F   0  0  0  0  0  0  0  0  0  0  0  0
  8  9  2  0  0  0
  9 10  1  0  0  0
 10 12  1  0  0  0
 12 13  2  0  0  0
 12 14  2  0  0  0
 12 15  1  0  0  0
 15 16  1  0  0  0
 16 17  1  0  0  0
  9  1  1  0  0  0
  1  2  2  0  0  0
  2  3  1  0  0  0
  3 18  1  0  0  0
 18 19  1  0  0  0
 19 20  1  0  0  0
  3  4  2  0  0  0
  4 21  1  0  0  0
 21 22  1  0  0  0
 22 23  1  0  0  0
 23 24  1  0  0  0
 24 25  1  0  0  0
 25 26  1  0  0  0
 26 29  1  0  0  0
 29 30  1  0  0  0
 29 31  1  0  0  0
 29 32  1  0  0  0
 26 27  1  0  0  0
 27 28  1  0  0  0
  4  5  1  0  0  0
  5  6  2  0  0  0
  6  7  1  0  0  0
 17 15  1  0  0  0
  6  1  1  0  0  0
 20 18  1  0  0  0
 28 23  1  0  0  0
 10 11  1  0  0  0
M  END
> <minimizedAffinity>
-8.35279

> <CNNscore>
0.3943674266

> <CNNaffinity>
6.6080079079

> <CNN_VS>
2.6059830189

> <CNNaffinity_variance>
0.0998172984

$$$$
[H]c1c(F)c(C(=O)N([H])S(=O)(=O)C2([H])C([H])([H])C2([H])[H])c([H])c(C2([H])C([H])([H])C2([H])[H])c1OC([H])([H])C1([H])C([H])([H])C([H])([H])C([H])(C(F)(F)F)C([H])([H])C1([H])[H]


 32 35  0  0  0  0  0  0  0  0999 V2000
   58.6763   -3.9808  -12.5323 C   0  0  0  0  0  0  0  0  0  0  0  0
   58.5629   -4.5503  -11.2591 C   0  0  0  0  0  0  0  0  0  0  0  0
   57.3876   -4.6634  -10.5883 C   0  0  0  0  0  0  0  0  0  0  0  0
   56.1756   -4.1937  -11.1639 C   0  0  0  0  0  0  0  0  0  0  0  0
   56.3067   -3.6358  -12.4204 C   0  0  0  0  0  0  0  0  0  0  0  0
   57.5251   -3.5316  -13.0873 C   0  0  0  0  0  0  0  0  0  0  0  0
   57.5338   -2.9615  -14.2959 F   0  0  0  0  0  0  0  0  0  0  0  0
   60.7768   -4.9433  -12.8928 O   0  0  0  0  0  0  0  0  0  0  0  0
   59.9978   -3.9447  -13.1199 C   0  0  0  0  0  0  0  0  0  0  0  0
   60.5430   -2.9400  -13.9215 N   0  0  0  0  0  0  0  0  0  0  0  0
   60.0197   -2.1013  -14.1854 H   0  0  0  0  0  0  0  0  0  0  0  0
   62.1475   -3.0628  -14.5363 S   0  0  0  0  0  0  0  0  0  0  0  0
   62.9995   -3.8964  -13.6095 O   0  0  0  0  0  0  0  0  0  0  0  0
   62.7978   -1.7180  -14.6554 O   0  0  0  0  0  0  0  0  0  0  0  0
   62.1309   -3.8632  -16.1483 C   0  0  0  0  0  0  0  0  0  0  0  0
   63.0425   -3.3538  -17.2168 C   0  0  0  0  0  0  0  0  0  0  0  0
   63.4421   -4.5607  -16.4636 C   0  0  0  0  0  0  0  0  0  0  0  0
   57.2895   -5.2613   -9.2176 C   0  0  0  0  0  0  0  0  0  0  0  0
   58.4509   -5.3548   -8.3269 C   0  0  0  0  0  0  0  0  0  0  0  0
   57.4935   -4.2480   -8.0854 C   0  0  0  0  0  0  0  0  0  0  0  0
   55.0592   -4.3350  -10.4664 O   0  0  0  0  0  0  0  0  0  0  0  0
   53.9505   -3.7513  -10.0912 C   0  0  0  0  0  0  0  0  0  0  0  0
   53.1741   -4.1037   -8.8821 C   0  0  0  0  0  0  0  0  0  0  0  0
   53.9886   -4.7705   -7.7898 C   0  0  0  0  0  0  0  0  0  0  0  0
   53.0498   -5.7033   -7.0778 C   0  0  0  0  0  0  0  0  0  0  0  0
   51.8567   -5.0064   -6.5557 C   0  0  0  0  0  0  0  0  0  0  0  0
   51.4800   -3.6883   -7.0931 C   0  0  0  0  0  0  0  0  0  0  0  0
   52.2665   -3.1432   -8.2499 C   0  0  0  0  0  0  0  0  0  0  0  0
   50.6300   -5.9539   -6.5393 C   0  0  0  0  0  0  0  0  0  0  0  0
   50.2756   -6.3077   -5.2747 F   0  0  0  0  0  0  0  0  0  0  0  0
   49.5439   -5.3015   -7.1068 F   0  0  0  0  0  0  0  0  0  0  0  0
   50.8734   -7.0544   -7.3210 F   0  0  0  0  0  0  0  0  0  0  0  0
  8  9  2  0  0  0
  9 10  1  0  0  0
 10 12  1  0  0  0
 12 13  2  0  0  0
 12 14  2  0  0  0
 12 15  1  0  0  0
 15 16  1  0  0  0
 16 17  1  0  0  0
  9  1  1  0  0  0
  1  2  2  0  0  0
  2  3  1  0  0  0
  3 18  1  0  0  0
 18 19  1  0  0  0
 19 20  1  0  0  0
  3  4  2  0  0  0
  4 21  1  0  0  0
 21 22  1  0  0  0
 22 23  1  0  0  0
 23 24  1  0  0  0
 24 25  1  0  0  0
 25 26  1  0  0  0
 26 29  1  0  0  0
 29 30  1  0  0  0
 29 31  1  0  0  0
 29 32  1  0  0  0
 26 27  1  0  0  0
 27 28  1  0  0  0
  4  5  1  0  0  0
  5  6  2  0  0  0
  6  7  1  0  0  0
 17 15  1  0  0  0
  6  1  1  0  0  0
 20 18  1  0  0  0
 28 23  1  0  0  0
 10 11  1  0  0  0
M  END
> <minimizedAffinity>
-8.33614

> <CNNscore>
0.3155662417

> <CNNaffinity>
6.3469471931

> <CNN_VS>
2.0028822422

> <CNNaffinity_variance>
0.0958285183

$$$$
[H]c1c(F)c(C(=O)N([H])S(=O)(=O)C2([H])C([H])([H])C2([H])[H])c([H])c(C2([H])C([H])([H])C2([H])[H])c1OC([H])([H])C1([H])C([H])([H])C([H])([H])C([H])(C(F)(F)F)C([H])([H])C1([H])[H]


 32 35  0  0  0  0  0  0  0  0999 V2000
   57.0201   -4.4132  -11.3858 C   0  0  0  0  0  0  0  0  0  0  0  0
   58.0262   -5.0638  -10.6628 C   0  0  0  0  0  0  0  0  0  0  0  0
   57.9553   -5.3076   -9.3287 C   0  0  0  0  0  0  0  0  0  0  0  0
   56.8197   -4.9011   -8.5763 C   0  0  0  0  0  0  0  0  0  0  0  0
   55.8371   -4.2618   -9.3063 C   0  0  0  0  0  0  0  0  0  0  0  0
   55.9346   -4.0236  -10.6752 C   0  0  0  0  0  0  0  0  0  0  0  0
   54.9263   -3.3845  -11.2758 F   0  0  0  0  0  0  0  0  0  0  0  0
   58.4410   -4.3818  -13.2429 O   0  0  0  0  0  0  0  0  0  0  0  0
   57.2394   -4.2395  -12.8051 C   0  0  0  0  0  0  0  0  0  0  0  0
   56.2880   -3.9319  -13.7796 N   0  0  0  0  0  0  0  0  0  0  0  0
   55.2962   -3.8073  -13.5609 H   0  0  0  0  0  0  0  0  0  0  0  0
   56.7318   -3.7575  -15.4349 S   0  0  0  0  0  0  0  0  0  0  0  0
   55.6473   -3.0297  -16.1924 O   0  0  0  0  0  0  0  0  0  0  0  0
   56.9267   -5.0874  -16.0974 O   0  0  0  0  0  0  0  0  0  0  0  0
   58.2469   -2.7954  -15.5693 C   0  0  0  0  0  0  0  0  0  0  0  0
   59.3191   -3.2630  -16.4987 C   0  0  0  0  0  0  0  0  0  0  0  0
   58.4217   -2.1771  -16.9448 C   0  0  0  0  0  0  0  0  0  0  0  0
   59.0516   -5.9909   -8.5690 C   0  0  0  0  0  0  0  0  0  0  0  0
   59.9513   -6.9579   -9.2064 C   0  0  0  0  0  0  0  0  0  0  0  0
   60.4601   -5.5783   -9.0116 C   0  0  0  0  0  0  0  0  0  0  0  0
   56.8028   -5.1700   -7.2801 O   0  0  0  0  0  0  0  0  0  0  0  0
   56.1049   -5.6900   -6.3038 C   0  0  0  0  0  0  0  0  0  0  0  0
   54.6296   -5.6476   -6.2000 C   0  0  0  0  0  0  0  0  0  0  0  0
   53.9091   -6.5597   -7.1747 C   0  0  0  0  0  0  0  0  0  0  0  0
   52.6055   -5.8839   -7.4949 C   0  0  0  0  0  0  0  0  0  0  0  0
   51.8095   -5.6000   -6.2836 C   0  0  0  0  0  0  0  0  0  0  0  0
   52.4599   -5.5818   -4.9626 C   0  0  0  0  0  0  0  0  0  0  0  0
   53.9517   -5.7407   -4.9048 C   0  0  0  0  0  0  0  0  0  0  0  0
   50.9470   -4.3269   -6.4787 C   0  0  0  0  0  0  0  0  0  0  0  0
   49.8563   -4.5639   -7.2560 F   0  0  0  0  0  0  0  0  0  0  0  0
   50.4882   -3.8944   -5.2418 F   0  0  0  0  0  0  0  0  0  0  0  0
   51.7152   -3.3096   -6.9850 F   0  0  0  0  0  0  0  0  0  0  0  0
  8  9  2  0  0  0
  9 10  1  0  0  0
 10 12  1  0  0  0
 12 13  2  0  0  0
 12 14  2  0  0  0
 12 15  1  0  0  0
 15 16  1  0  0  0
 16 17  1  0  0  0
  9  1  1  0  0  0
  1  2  2  0  0  0
  2  3  1  0  0  0
  3 18  1  0  0  0
 18 19  1  0  0  0
 19 20  1  0  0  0
  3  4  2  0  0  0
  4 21  1  0  0  0
 21 22  1  0  0  0
 22 23  1  0  0  0
 23 24  1  0  0  0
 24 25  1  0  0  0
 25 26  1  0  0  0
 26 29  1  0  0  0
 29 30  1  0  0  0
 29 31  1  0  0  0
 29 32  1  0  0  0
 26 27  1  0  0  0
 27 28  1  0  0  0
  4  5  1  0  0  0
  5  6  2  0  0  0
  6  7  1  0  0  0
 17 15  1  0  0  0
  6  1  1  0  0  0
 20 18  1  0  0  0
 28 23  1  0  0  0
 10 11  1  0  0  0
M  END
> <minimizedAffinity>
-8.46599

> <CNNscore>
0.3069395423

> <CNNaffinity>
6.6949205399

> <CNN_VS>
2.0549359322

> <CNNaffinity_variance>
0.2011338770

$$$$
[H]c1c(F)c(C(=O)N([H])S(=O)(=O)C2([H])C([H])([H])C2([H])[H])c([H])c(C2([H])C([H])([H])C2([H])[H])c1OC([H])([H])C1([H])C([H])([H])C([H])([H])C([H])(C(F)(F)F)C([H])([H])C1([H])[H]


 32 35  0  0  0  0  0  0  0  0999 V2000
   57.1338   -4.5305  -10.9162 C   0  0  0  0  0  0  0  0  0  0  0  0
   55.9680   -4.0012  -10.3514 C   0  0  0  0  0  0  0  0  0  0  0  0
   55.6770   -4.0687   -9.0267 C   0  0  0  0  0  0  0  0  0  0  0  0
   56.5702   -4.7003   -8.1189 C   0  0  0  0  0  0  0  0  0  0  0  0
   57.7153   -5.2157   -8.6938 C   0  0  0  0  0  0  0  0  0  0  0  0
   57.9900   -5.1334  -10.0568 C   0  0  0  0  0  0  0  0  0  0  0  0
   59.1250   -5.6792  -10.5037 F   0  0  0  0  0  0  0  0  0  0  0  0
   58.4673   -4.6152  -12.8353 O   0  0  0  0  0  0  0  0  0  0  0  0
   57.3046   -4.3670  -12.3434 C   0  0  0  0  0  0  0  0  0  0  0  0
   56.3428   -3.9665  -13.2729 N   0  0  0  0  0  0  0  0  0  0  0  0
   55.3773   -3.7535  -13.0093 H   0  0  0  0  0  0  0  0  0  0  0  0
   56.7264   -3.8211  -14.9460 S   0  0  0  0  0  0  0  0  0  0  0  0
   55.6522   -3.0381  -15.6619 O   0  0  0  0  0  0  0  0  0  0  0  0
   56.8220   -5.1615  -15.6091 O   0  0  0  0  0  0  0  0  0  0  0  0
   58.2842   -2.9425  -15.1476 C   0  0  0  0  0  0  0  0  0  0  0  0
   59.2789   -3.4543  -16.1379 C   0  0  0  0  0  0  0  0  0  0  0  0
   58.4220   -2.3134  -16.5225 C   0  0  0  0  0  0  0  0  0  0  0  0
   54.4143   -3.5105   -8.4435 C   0  0  0  0  0  0  0  0  0  0  0  0
   53.2602   -3.1644   -9.2796 C   0  0  0  0  0  0  0  0  0  0  0  0
   53.2127   -4.4562   -8.5523 C   0  0  0  0  0  0  0  0  0  0  0  0
   56.2372   -4.7317   -6.8379 O   0  0  0  0  0  0  0  0  0  0  0  0
   56.3385   -5.4061   -5.7218 C   0  0  0  0  0  0  0  0  0  0  0  0
   55.2336   -5.6315   -4.7641 C   0  0  0  0  0  0  0  0  0  0  0  0
   55.3881   -4.8932   -3.4480 C   0  0  0  0  0  0  0  0  0  0  0  0
   54.7308   -5.7534   -2.4058 C   0  0  0  0  0  0  0  0  0  0  0  0
   53.3211   -6.0499   -2.7319 C   0  0  0  0  0  0  0  0  0  0  0  0
   52.8351   -5.8883   -4.1126 C   0  0  0  0  0  0  0  0  0  0  0  0
   53.8318   -5.5338   -5.1780 C   0  0  0  0  0  0  0  0  0  0  0  0
   52.9069   -7.4347   -2.1720 C   0  0  0  0  0  0  0  0  0  0  0  0
   51.6501   -7.7851   -2.5563 F   0  0  0  0  0  0  0  0  0  0  0  0
   53.7746   -8.4014   -2.6620 F   0  0  0  0  0  0  0  0  0  0  0  0
   53.0393   -7.4505   -0.8068 F   0  0  0  0  0  0  0  0  0  0  0  0
  8  9  2  0  0  0
  9 10  1  0  0  0
 10 12  1  0  0  0
 12 13  2  0  0  0
 12 14  2  0  0  0
 12 15  1  0  0  0
 15 16  1  0  0  0
 16 17  1  0  0  0
  9  1  1  0  0  0
  1  2  2  0  0  0
  2  3  1  0  0  0
  3 18  1  0  0  0
 18 19  1  0  0  0
 19 20  1  0  0  0
  3  4  2  0  0  0
  4 21  1  0  0  0
 21 22  1  0  0  0
 22 23  1  0  0  0
 23 24  1  0  0  0
 24 25  1  0  0  0
 25 26  1  0  0  0
 26 29  1  0  0  0
 29 30  1  0  0  0
 29 31  1  0  0  0
 29 32  1  0  0  0
 26 27  1  0  0  0
 27 28  1  0  0  0
  4  5  1  0  0  0
  5  6  2  0  0  0
  6  7  1  0  0  0
 17 15  1  0  0  0
  6  1  1  0  0  0
 20 18  1  0  0  0
 28 23  1  0  0  0
 10 11  1  0  0  0
M  END
> <minimizedAffinity>
-8.69542

> <CNNscore>
0.3047512472

> <CNNaffinity>
6.5454001427

> <CNN_VS>
1.9947189093

> <CNNaffinity_variance>
0.1728127748

$$$$
[H]OC(=O)C1=C([H])[C@@]([H])(O[C@@]([H])(C([H])([H])C([H])([H])[H])C([H])([H])C([H])([H])C([H])([H])C([H])([H])C([H])([H])C([H])([H])C([H])([H])[H])[C@]([H])(N([H])C(=O)C([H])([H])[H])[C@@]([H])(N([H])[H])C1([H])[H]


 29 29  0  0  0  0  0  0  0  0999 V2000
   54.2906   -6.9152   -3.7498 C   0  0  0  0  0  0  0  0  0  0  0  0
   52.8880   -6.3411   -3.8068 C   0  0  0  0  0  0  0  0  0  0  0  0
   52.2022   -6.2706   -2.6655 C   0  0  0  0  0  0  0  0  0  0  0  0
   52.9806   -6.7766   -1.4723 C   0  0  0  0  0  0  0  0  0  0  0  0
   54.2178   -5.9169   -1.4375 C   0  0  0  0  0  0  0  0  0  0  0  0
   53.8517   -4.5372   -1.1318 N   0  0  0  0  0  0  0  0  0  0  0  0
   54.9651   -6.0146   -2.7389 C   0  0  0  0  0  0  0  0  0  0  0  0
   52.8641   -4.4730   -0.8004 H   0  0  0  0  0  0  0  0  0  0  0  0
   54.4868   -4.1825   -0.3549 H   0  0  0  0  0  0  0  0  0  0  0  0
   56.3097   -6.4132   -2.3914 N   0  0  0  0  0  0  0  0  0  0  0  0
   57.3370   -5.4860   -2.1153 C   0  0  0  0  0  0  0  0  0  0  0  0
   58.7183   -5.8858   -1.7583 C   0  0  0  0  0  0  0  0  0  0  0  0
   57.0726   -4.2604   -2.1736 O   0  0  0  0  0  0  0  0  0  0  0  0
   56.5199   -7.4312   -2.3456 H   0  0  0  0  0  0  0  0  0  0  0  0
   50.8722   -5.7666   -2.5047 C   0  0  0  0  0  0  0  0  0  0  0  0
   50.4017   -4.8160   -3.1905 O   0  0  0  0  0  0  0  0  0  0  0  0
   50.0480   -6.3531   -1.5408 O   0  0  0  0  0  0  0  0  0  0  0  0
   49.0610   -6.4503   -1.7973 H   0  0  0  0  0  0  0  0  0  0  0  0
   54.8200   -6.8564   -4.9932 O   0  0  0  0  0  0  0  0  0  0  0  0
   54.5267   -5.7375   -5.7795 C   0  0  0  0  0  0  0  0  0  0  0  0
   55.5857   -4.7114   -5.8640 C   0  0  0  0  0  0  0  0  0  0  0  0
   55.9664   -4.4367   -7.3201 C   0  0  0  0  0  0  0  0  0  0  0  0
   53.9241   -6.0780   -7.0710 C   0  0  0  0  0  0  0  0  0  0  0  0
   52.5149   -5.8912   -7.4180 C   0  0  0  0  0  0  0  0  0  0  0  0
   51.8006   -4.7847   -6.7683 C   0  0  0  0  0  0  0  0  0  0  0  0
   51.9927   -3.4771   -7.6138 C   0  0  0  0  0  0  0  0  0  0  0  0
   50.7114   -2.6982   -7.3942 C   0  0  0  0  0  0  0  0  0  0  0  0
   49.0991   -2.6144   -5.5734 C   0  0  0  0  0  0  0  0  0  0  0  0
   49.6900   -3.4909   -6.6345 C   0  0  0  0  0  0  0  0  0  0  0  0
 28 29  1  0  0  0
 29 27  1  0  0  0
 27 26  1  0  0  0
 26 25  1  0  0  0
 25 24  1  0  0  0
 24 23  1  0  0  0
 23 20  1  0  0  0
 20 21  1  0  0  0
 21 22  1  0  0  0
 20 19  1  0  0  0
 19  1  1  0  0  0
  1  2  1  0  0  0
  2  3  2  0  0  0
  3 15  1  0  0  0
 15 16  2  0  0  0
 15 17  1  0  0  0
  3  4  1  0  0  0
  4  5  1  0  0  0
  5  6  1  0  0  0
  5  7  1  0  0  0
  7 10  1  0  0  0
 10 11  1  0  0  0
 11 12  1  0  0  0
 11 13  2  0  0  0
  7  1  1  0  0  0
 17 18  1  0  0  0
  6  8  1  0  0  0
  6  9  1  0  0  0
 10 14  1  0  0  0
M  END
> <minimizedAffinity>
-7.16753

> <CNNscore>
0.3727864027

> <CNNaffinity>
6.1098060608

> <CNN_VS>
2.2776527405

> <CNNaffinity_variance>
0.2602375150

$$$$
[H]OC(=O)C1=C([H])[C@@]([H])(O[C@@]([H])(C([H])([H])C([H])([H])[H])C([H])([H])C([H])([H])C([H])([H])C([H])([H])C([H])([H])C([H])([H])C([H])([H])[H])[C@]([H])(N([H])C(=O)C([H])([H])[H])[C@@]([H])(N([H])[H])C1([H])[H]


 29 29  0  0  0  0  0  0  0  0999 V2000
   54.5442   -6.7884   -2.8518 C   0  0  0  0  0  0  0  0  0  0  0  0
   53.1458   -7.3674   -2.7569 C   0  0  0  0  0  0  0  0  0  0  0  0
   52.5480   -7.3472   -1.5652 C   0  0  0  0  0  0  0  0  0  0  0  0
   53.3946   -6.7106   -0.4865 C   0  0  0  0  0  0  0  0  0  0  0  0
   53.6737   -5.3208   -0.9979 C   0  0  0  0  0  0  0  0  0  0  0  0
   52.4320   -4.5549   -1.0487 N   0  0  0  0  0  0  0  0  0  0  0  0
   54.3427   -5.3781   -2.3435 C   0  0  0  0  0  0  0  0  0  0  0  0
   51.6657   -5.0432   -0.5352 H   0  0  0  0  0  0  0  0  0  0  0  0
   52.5963   -3.6122   -0.5827 H   0  0  0  0  0  0  0  0  0  0  0  0
   55.5620   -4.6145   -2.2094 N   0  0  0  0  0  0  0  0  0  0  0  0
   56.7264   -5.1300   -1.6016 C   0  0  0  0  0  0  0  0  0  0  0  0
   57.9807   -4.3541   -1.4598 C   0  0  0  0  0  0  0  0  0  0  0  0
   56.7038   -6.3037   -1.1573 O   0  0  0  0  0  0  0  0  0  0  0  0
   55.5716   -3.6424   -2.5804 H   0  0  0  0  0  0  0  0  0  0  0  0
   51.2389   -7.8417   -1.2643 C   0  0  0  0  0  0  0  0  0  0  0  0
   50.9622   -9.0715   -1.1838 O   0  0  0  0  0  0  0  0  0  0  0  0
   50.2108   -6.9206   -1.0476 O   0  0  0  0  0  0  0  0  0  0  0  0
   49.5383   -7.1668   -0.3152 H   0  0  0  0  0  0  0  0  0  0  0  0
   54.9454   -6.8669   -4.1413 O   0  0  0  0  0  0  0  0  0  0  0  0
   54.6834   -5.7771   -4.9779 C   0  0  0  0  0  0  0  0  0  0  0  0
   55.8647   -5.1232   -5.5764 C   0  0  0  0  0  0  0  0  0  0  0  0
   55.5202   -4.5077   -6.9340 C   0  0  0  0  0  0  0  0  0  0  0  0
   53.5951   -6.0236   -5.9276 C   0  0  0  0  0  0  0  0  0  0  0  0
   52.1687   -5.9697   -5.6060 C   0  0  0  0  0  0  0  0  0  0  0  0
   51.4470   -4.7355   -5.9414 C   0  0  0  0  0  0  0  0  0  0  0  0
   51.8053   -4.3087   -7.4082 C   0  0  0  0  0  0  0  0  0  0  0  0
   51.2158   -2.9196   -7.5479 C   0  0  0  0  0  0  0  0  0  0  0  0
   53.0933   -2.8929   -9.0958 C   0  0  0  0  0  0  0  0  0  0  0  0
   51.9211   -2.1078   -8.5930 C   0  0  0  0  0  0  0  0  0  0  0  0
 28 29  1  0  0  0
 29 27  1  0  0  0
 27 26  1  0  0  0
 26 25  1  0  0  0
 25 24  1  0  0  0
 24 23  1  0  0  0
 23 20  1  0  0  0
 20 21  1  0  0  0
 21 22  1  0  0  0
 20 19  1  0  0  0
 19  1  1  0  0  0
  1  2  1  0  0  0
  2  3  2  0  0  0
  3 15  1  0  0  0
 15 16  2  0  0  0
 15 17  1  0  0  0
  3  4  1  0  0  0
  4  5  1  0  0  0
  5  6  1  0  0  0
  5  7  1  0  0  0
  7 10  1  0  0  0
 10 11  1  0  0  0
 11 12  1  0  0  0
 11 13  2  0  0  0
  7  1  1  0  0  0
 17 18  1  0  0  0
  6  8  1  0  0  0
  6  9  1  0  0  0
 10 14  1  0  0  0
M  END
> <minimizedAffinity>
-6.94870

> <CNNscore>
0.3345187604

> <CNNaffinity>
6.1339340210

> <CNN_VS>
2.0519161224

> <CNNaffinity_variance>
0.1505996138

$$$$
[H]OC(=O)C1=C([H])[C@@]([H])(O[C@@]([H])(C([H])([H])C([H])([H])[H])C([H])([H])C([H])([H])C([H])([H])C([H])([H])C([H])([H])C([H])([H])C([H])([H])[H])[C@]([H])(N([H])C(=O)C([H])([H])[H])[C@@]([H])(N([H])[H])C1([H])[H]


 29 29  0  0  0  0  0  0  0  0999 V2000
   53.7910   -6.3840   -6.4298 C   0  0  0  0  0  0  0  0  0  0  0  0
   53.0101   -6.0322   -5.1782 C   0  0  0  0  0  0  0  0  0  0  0  0
   53.5333   -6.3854   -4.0037 C   0  0  0  0  0  0  0  0  0  0  0  0
   54.8688   -7.0819   -4.1334 C   0  0  0  0  0  0  0  0  0  0  0  0
   55.7410   -6.0916   -4.8611 C   0  0  0  0  0  0  0  0  0  0  0  0
   55.9697   -4.9222   -4.0178 N   0  0  0  0  0  0  0  0  0  0  0  0
   55.1217   -5.7106   -6.1775 C   0  0  0  0  0  0  0  0  0  0  0  0
   55.6683   -5.1007   -3.0346 H   0  0  0  0  0  0  0  0  0  0  0  0
   57.0121   -4.7074   -4.0121 H   0  0  0  0  0  0  0  0  0  0  0  0
   56.1264   -5.9853   -7.1789 N   0  0  0  0  0  0  0  0  0  0  0  0
   57.0635   -5.0220   -7.6092 C   0  0  0  0  0  0  0  0  0  0  0  0
   58.0968   -5.2950   -8.6354 C   0  0  0  0  0  0  0  0  0  0  0  0
   57.0240   -3.8753   -7.1004 O   0  0  0  0  0  0  0  0  0  0  0  0
   56.1517   -6.9385   -7.5955 H   0  0  0  0  0  0  0  0  0  0  0  0
   52.9587   -6.1500   -2.7140 C   0  0  0  0  0  0  0  0  0  0  0  0
   52.0765   -6.8937   -2.2001 O   0  0  0  0  0  0  0  0  0  0  0  0
   53.3929   -5.0419   -1.9818 O   0  0  0  0  0  0  0  0  0  0  0  0
   53.4783   -5.1810   -0.9706 H   0  0  0  0  0  0  0  0  0  0  0  0
   53.1136   -5.9030   -7.4973 O   0  0  0  0  0  0  0  0  0  0  0  0
   53.0554   -4.5160   -7.6675 C   0  0  0  0  0  0  0  0  0  0  0  0
   53.5561   -4.0017   -8.9584 C   0  0  0  0  0  0  0  0  0  0  0  0
   54.4327   -2.7650   -8.7517 C   0  0  0  0  0  0  0  0  0  0  0  0
   51.7770   -3.9336   -7.2509 C   0  0  0  0  0  0  0  0  0  0  0  0
   51.2155   -2.6827   -7.7617 C   0  0  0  0  0  0  0  0  0  0  0  0
   50.0125   -2.1624   -7.0993 C   0  0  0  0  0  0  0  0  0  0  0  0
   49.2762   -3.3378   -6.3656 C   0  0  0  0  0  0  0  0  0  0  0  0
   48.9278   -2.7691   -5.0047 C   0  0  0  0  0  0  0  0  0  0  0  0
   49.8248   -4.6037   -3.6813 C   0  0  0  0  0  0  0  0  0  0  0  0
   48.5798   -3.8410   -4.0154 C   0  0  0  0  0  0  0  0  0  0  0  0
 28 29  1  0  0  0
 29 27  1  0  0  0
 27 26  1  0  0  0
 26 25  1  0  0  0
 25 24  1  0  0  0
 24 23  1  0  0  0
 23 20  1  0  0  0
 20 21  1  0  0  0
 21 22  1  0  0  0
 20 19  1  0  0  0
 19  1  1  0  0  0
  1  2  1  0  0  0
  2  3  2  0  0  0
  3 15  1  0  0  0
 15 16  2  0  0  0
 15 17  1  0  0  0
  3  4  1  0  0  0
  4  5  1  0  0  0
  5  6  1  0  0  0
  5  7  1  0  0  0
  7 10  1  0  0  0
 10 11  1  0  0  0
 11 12  1  0  0  0
 11 13  2  0  0  0
  7  1  1  0  0  0
 17 18  1  0  0  0
  6  8  1  0  0  0
  6  9  1  0  0  0
 10 14  1  0  0  0
M  END
> <minimizedAffinity>
-7.52880

> <CNNscore>
0.3014850020

> <CNNaffinity>
5.9027090073

> <CNN_VS>
1.7795782089

> <CNNaffinity_variance>
0.2157927305

$$$$
[H]OC(=O)C1=C([H])[C@@]([H])(O[C@@]([H])(C([H])([H])C([H])([H])[H])C([H])([H])C([H])([H])C([H])([H])C([H])([H])C([H])([H])C([H])([H])C([H])([H])[H])[C@]([H])(N([H])C(=O)C([H])([H])[H])[C@@]([H])(N([H])[H])C1([H])[H]


 29 29  0  0  0  0  0  0  0  0999 V2000
   55.3569   -5.3474   -7.1126 C   0  0  0  0  0  0  0  0  0  0  0  0
   53.9888   -4.9477   -7.6307 C   0  0  0  0  0  0  0  0  0  0  0  0
   53.8596   -3.7305   -8.1596 C   0  0  0  0  0  0  0  0  0  0  0  0
   55.1513   -2.9450   -8.1656 C   0  0  0  0  0  0  0  0  0  0  0  0
   56.1089   -3.8007   -8.9541 C   0  0  0  0  0  0  0  0  0  0  0  0
   55.6710   -3.8785  -10.3445 N   0  0  0  0  0  0  0  0  0  0  0  0
   56.2286   -5.1661   -8.3355 C   0  0  0  0  0  0  0  0  0  0  0  0
   54.9277   -3.1743  -10.5466 H   0  0  0  0  0  0  0  0  0  0  0  0
   56.5042   -3.6723  -10.9740 H   0  0  0  0  0  0  0  0  0  0  0  0
   57.6391   -5.3668   -8.0953 N   0  0  0  0  0  0  0  0  0  0  0  0
   58.5562   -5.6715   -9.1235 C   0  0  0  0  0  0  0  0  0  0  0  0
   60.0039   -5.8790   -8.8861 C   0  0  0  0  0  0  0  0  0  0  0  0
   58.1294   -5.7730  -10.2995 O   0  0  0  0  0  0  0  0  0  0  0  0
   57.9841   -5.2810   -7.1173 H   0  0  0  0  0  0  0  0  0  0  0  0
   52.6616   -3.1631   -8.6999 C   0  0  0  0  0  0  0  0  0  0  0  0
   52.5625   -2.7531   -9.8904 O   0  0  0  0  0  0  0  0  0  0  0  0
   51.5415   -3.0552   -7.8716 O   0  0  0  0  0  0  0  0  0  0  0  0
   50.6374   -3.2350   -8.3183 H   0  0  0  0  0  0  0  0  0  0  0  0
   55.2809   -6.6209   -6.6630 O   0  0  0  0  0  0  0  0  0  0  0  0
   55.4450   -6.8440   -5.2920 C   0  0  0  0  0  0  0  0  0  0  0  0
   56.4547   -6.0038   -4.6168 C   0  0  0  0  0  0  0  0  0  0  0  0
   57.0008   -6.7009   -3.3692 C   0  0  0  0  0  0  0  0  0  0  0  0
   54.1767   -6.9491   -4.5656 C   0  0  0  0  0  0  0  0  0  0  0  0
   53.4057   -5.8174   -4.0499 C   0  0  0  0  0  0  0  0  0  0  0  0
   51.9987   -5.7168   -4.4587 C   0  0  0  0  0  0  0  0  0  0  0  0
   51.0909   -5.6617   -3.1802 C   0  0  0  0  0  0  0  0  0  0  0  0
   49.8876   -4.8474   -3.6108 C   0  0  0  0  0  0  0  0  0  0  0  0
   49.1931   -3.0877   -5.1415 C   0  0  0  0  0  0  0  0  0  0  0  0
   50.0295   -4.3231   -5.0086 C   0  0  0  0  0  0  0  0  0  0  0  0
 28 29  1  0  0  0
 29 27  1  0  0  0
 27 26  1  0  0  0
 26 25  1  0  0  0
 25 24  1  0  0  0
 24 23  1  0  0  0
 23 20  1  0  0  0
 20 21  1  0  0  0
 21 22  1  0  0  0
 20 19  1  0  0  0
 19  1  1  0  0  0
  1  2  1  0  0  0
  2  3  2  0  0  0
  3 15  1  0  0  0
 15 16  2  0  0  0
 15 17  1  0  0  0
  3  4  1  0  0  0
  4  5  1  0  0  0
  5  6  1  0  0  0
  5  7  1  0  0  0
  7 10  1  0  0  0
 10 11  1  0  0  0
 11 12  1  0  0  0
 11 13  2  0  0  0
  7  1  1  0  0  0
 17 18  1  0  0  0
  6  8  1  0  0  0
  6  9  1  0  0  0
 10 14  1  0  0  0
M  END
> <minimizedAffinity>
-7.22553

> <CNNscore>
0.3011609614

> <CNNaffinity>
5.9311170578

> <CNN_VS>
1.7862209082

> <CNNaffinity_variance>
0.0553582832

$$$$
[H]OC(=O)C1=C([H])[C@@]([H])(O[C@@]([H])(C([H])([H])C([H])([H])[H])C([H])([H])C([H])([H])C([H])([H])C([H])([H])C([H])([H])C([H])([H])C([H])([H])[H])[C@]([H])(N([H])C(=O)C([H])([H])[H])[C@@]([H])(N([H])[H])C1([H])[H]


 29 29  0  0  0  0  0  0  0  0999 V2000
   54.5349   -5.3355   -5.8666 C   0  0  0  0  0  0  0  0  0  0  0  0
   55.8203   -5.8244   -5.2272 C   0  0  0  0  0  0  0  0  0  0  0  0
   55.8718   -5.8642   -3.8954 C   0  0  0  0  0  0  0  0  0  0  0  0
   54.5864   -5.4166   -3.2373 C   0  0  0  0  0  0  0  0  0  0  0  0
   53.5375   -6.3490   -3.7864 C   0  0  0  0  0  0  0  0  0  0  0  0
   53.7879   -7.7070   -3.3133 N   0  0  0  0  0  0  0  0  0  0  0  0
   53.5081   -6.2841   -5.2886 C   0  0  0  0  0  0  0  0  0  0  0  0
   54.4941   -7.7152   -2.5449 H   0  0  0  0  0  0  0  0  0  0  0  0
   52.8777   -8.1062   -2.9324 H   0  0  0  0  0  0  0  0  0  0  0  0
   52.1429   -5.9697   -5.6421 N   0  0  0  0  0  0  0  0  0  0  0  0
   51.5391   -6.4129   -6.8380 C   0  0  0  0  0  0  0  0  0  0  0  0
   50.1401   -6.0952   -7.2083 C   0  0  0  0  0  0  0  0  0  0  0  0
   52.2165   -7.1114   -7.6308 O   0  0  0  0  0  0  0  0  0  0  0  0
   51.5888   -5.3900   -4.9790 H   0  0  0  0  0  0  0  0  0  0  0  0
   56.9846   -6.2894   -3.1018 C   0  0  0  0  0  0  0  0  0  0  0  0
   58.1419   -5.7943   -3.2062 O   0  0  0  0  0  0  0  0  0  0  0  0
   56.7855   -7.3039   -2.1619 O   0  0  0  0  0  0  0  0  0  0  0  0
   57.2940   -7.2000   -1.2788 H   0  0  0  0  0  0  0  0  0  0  0  0
   54.6767   -5.4145   -7.2096 O   0  0  0  0  0  0  0  0  0  0  0  0
   55.3674   -4.3858   -7.8584 C   0  0  0  0  0  0  0  0  0  0  0  0
   56.3665   -4.8098   -8.8601 C   0  0  0  0  0  0  0  0  0  0  0  0
   57.7202   -5.0819   -8.2014 C   0  0  0  0  0  0  0  0  0  0  0  0
   54.4964   -3.2978   -8.3109 C   0  0  0  0  0  0  0  0  0  0  0  0
   53.1106   -3.4571   -8.7527 C   0  0  0  0  0  0  0  0  0  0  0  0
   52.0527   -3.1466   -7.7826 C   0  0  0  0  0  0  0  0  0  0  0  0
   51.1877   -1.9547   -8.3237 C   0  0  0  0  0  0  0  0  0  0  0  0
   50.0613   -1.8235   -7.3183 C   0  0  0  0  0  0  0  0  0  0  0  0
   48.9810   -2.6955   -5.3197 C   0  0  0  0  0  0  0  0  0  0  0  0
   50.0174   -2.9789   -6.3633 C   0  0  0  0  0  0  0  0  0  0  0  0
 28 29  1  0  0  0
 29 27  1  0  0  0
 27 26  1  0  0  0
 26 25  1  0  0  0
 25 24  1  0  0  0
 24 23  1  0  0  0
 23 20  1  0  0  0
 20 21  1  0  0  0
 21 22  1  0  0  0
 20 19  1  0  0  0
 19  1  1  0  0  0
  1  2  1  0  0  0
  2  3  2  0  0  0
  3 15  1  0  0  0
 15 16  2  0  0  0
 15 17  1  0  0  0
  3  4  1  0  0  0
  4  5  1  0  0  0
  5  6  1  0  0  0
  5  7  1  0  0  0
  7 10  1  0  0  0
 10 11  1  0  0  0
 11 12  1  0  0  0
 11 13  2  0  0  0
  7  1  1  0  0  0
 17 18  1  0  0  0
  6  8  1  0  0  0
  6  9  1  0  0  0
 10 14  1  0  0  0
M  END
> <minimizedAffinity>
-6.59380

> <CNNscore>
0.2805716395

> <CNNaffinity>
5.9698610306

> <CNN_VS>
1.6749737263

> <CNNaffinity_variance>
0.0984280780

$$$$
[H]OC(=O)C1=C([H])[C@@]([H])(O[C@@]([H])(C([H])([H])C([H])([H])[H])C([H])([H])C([H])([H])C([H])([H])C([H])([H])C([H])([H])C([H])([H])C([H])([H])[H])[C@]([H])(N([H])C(=O)C([H])([H])[H])[C@@]([H])(N([H])[H])C1([H])[H]


 29 29  0  0  0  0  0  0  0  0999 V2000
   54.7362   -5.6308   -6.0579 C   0  0  0  0  0  0  0  0  0  0  0  0
   55.8906   -6.5455   -5.6963 C   0  0  0  0  0  0  0  0  0  0  0  0
   56.3760   -6.4678   -4.4569 C   0  0  0  0  0  0  0  0  0  0  0  0
   55.6503   -5.4584   -3.5967 C   0  0  0  0  0  0  0  0  0  0  0  0
   54.2144   -5.9158   -3.6093 C   0  0  0  0  0  0  0  0  0  0  0  0
   54.0989   -7.1979   -2.9211 N   0  0  0  0  0  0  0  0  0  0  0  0
   53.6990   -5.9975   -5.0197 C   0  0  0  0  0  0  0  0  0  0  0  0
   54.9705   -7.4232   -2.3931 H   0  0  0  0  0  0  0  0  0  0  0  0
   53.2952   -7.1379   -2.2259 H   0  0  0  0  0  0  0  0  0  0  0  0
   52.5097   -5.1777   -5.0520 N   0  0  0  0  0  0  0  0  0  0  0  0
   51.2917   -5.5701   -4.4574 C   0  0  0  0  0  0  0  0  0  0  0  0
   50.0676   -4.7358   -4.4859 C   0  0  0  0  0  0  0  0  0  0  0  0
   51.2373   -6.6801   -3.8741 O   0  0  0  0  0  0  0  0  0  0  0  0
   52.5639   -4.2591   -5.5378 H   0  0  0  0  0  0  0  0  0  0  0  0
   57.4567   -7.2371   -3.9193 C   0  0  0  0  0  0  0  0  0  0  0  0
   57.3749   -7.8926   -2.8427 O   0  0  0  0  0  0  0  0  0  0  0  0
   58.6665   -7.2679   -4.6178 O   0  0  0  0  0  0  0  0  0  0  0  0
   59.1584   -8.1664   -4.6186 H   0  0  0  0  0  0  0  0  0  0  0  0
   54.3712   -5.8978   -7.3327 O   0  0  0  0  0  0  0  0  0  0  0  0
   54.3999   -4.8488   -8.2573 C   0  0  0  0  0  0  0  0  0  0  0  0
   53.2591   -3.9120   -8.2075 C   0  0  0  0  0  0  0  0  0  0  0  0
   53.5525   -2.6489   -9.0193 C   0  0  0  0  0  0  0  0  0  0  0  0
   55.7061   -4.1910   -8.3478 C   0  0  0  0  0  0  0  0  0  0  0  0
   56.9851   -4.8796   -8.5238 C   0  0  0  0  0  0  0  0  0  0  0  0
   57.5296   -4.9550   -9.8856 C   0  0  0  0  0  0  0  0  0  0  0  0
   56.8293   -3.8757  -10.7836 C   0  0  0  0  0  0  0  0  0  0  0  0
   56.7159   -4.5365  -12.1426 C   0  0  0  0  0  0  0  0  0  0  0  0
   56.3120   -4.2841  -14.5290 C   0  0  0  0  0  0  0  0  0  0  0  0
   56.3569   -3.5573  -13.2202 C   0  0  0  0  0  0  0  0  0  0  0  0
 28 29  1  0  0  0
 29 27  1  0  0  0
 27 26  1  0  0  0
 26 25  1  0  0  0
 25 24  1  0  0  0
 24 23  1  0  0  0
 23 20  1  0  0  0
 20 21  1  0  0  0
 21 22  1  0  0  0
 20 19  1  0  0  0
 19  1  1  0  0  0
  1  2  1  0  0  0
  2  3  2  0  0  0
  3 15  1  0  0  0
 15 16  2  0  0  0
 15 17  1  0  0  0
  3  4  1  0  0  0
  4  5  1  0  0  0
  5  6  1  0  0  0
  5  7  1  0  0  0
  7 10  1  0  0  0
 10 11  1  0  0  0
 11 12  1  0  0  0
 11 13  2  0  0  0
  7  1  1  0  0  0
 17 18  1  0  0  0
  6  8  1  0  0  0
  6  9  1  0  0  0
 10 14  1  0  0  0
M  END
> <minimizedAffinity>
-6.89905

> <CNNscore>
0.2765290141

> <CNNaffinity>
5.8511772156

> <CNN_VS>
1.6180202961

> <CNNaffinity_variance>
0.0446099788

$$$$
[H]OC(=O)C1=C([H])[C@@]([H])(O[C@@]([H])(C([H])([H])C([H])([H])[H])C([H])([H])C([H])([H])C([H])([H])C([H])([H])C([H])([H])C([H])([H])C([H])([H])[H])[C@]([H])(N([H])C(=O)C([H])([H])[H])[C@@]([H])(N([H])[H])C1([H])[H]


 29 29  0  0  0  0  0  0  0  0999 V2000
   54.1970   -6.0702   -3.2725 C   0  0  0  0  0  0  0  0  0  0  0  0
   52.8283   -6.6969   -3.0884 C   0  0  0  0  0  0  0  0  0  0  0  0
   52.5987   -7.3575   -1.9532 C   0  0  0  0  0  0  0  0  0  0  0  0
   53.7803   -7.3472   -1.0102 C   0  0  0  0  0  0  0  0  0  0  0  0
   54.0528   -5.8857   -0.7637 C   0  0  0  0  0  0  0  0  0  0  0  0
   52.9388   -5.2929   -0.0299 N   0  0  0  0  0  0  0  0  0  0  0  0
   54.3027   -5.1692   -2.0620 C   0  0  0  0  0  0  0  0  0  0  0  0
   52.3009   -6.0279    0.3472 H   0  0  0  0  0  0  0  0  0  0  0  0
   53.3300   -4.7395    0.7908 H   0  0  0  0  0  0  0  0  0  0  0  0
   55.5855   -4.5214   -1.9132 N   0  0  0  0  0  0  0  0  0  0  0  0
   56.7805   -5.2329   -1.6741 C   0  0  0  0  0  0  0  0  0  0  0  0
   58.1000   -4.5768   -1.5201 C   0  0  0  0  0  0  0  0  0  0  0  0
   56.7284   -6.4839   -1.5866 O   0  0  0  0  0  0  0  0  0  0  0  0
   55.6193   -3.4840   -1.9870 H   0  0  0  0  0  0  0  0  0  0  0  0
   51.3827   -8.0182   -1.5872 C   0  0  0  0  0  0  0  0  0  0  0  0
   51.0444   -9.1494   -2.0357 O   0  0  0  0  0  0  0  0  0  0  0  0
   50.5225   -7.3830   -0.6877 O   0  0  0  0  0  0  0  0  0  0  0  0
   50.0520   -7.9939   -0.0134 H   0  0  0  0  0  0  0  0  0  0  0  0
   54.2053   -5.4186   -4.4579 O   0  0  0  0  0  0  0  0  0  0  0  0
   54.9713   -5.9562   -5.4973 C   0  0  0  0  0  0  0  0  0  0  0  0
   55.7514   -7.1659   -5.1663 C   0  0  0  0  0  0  0  0  0  0  0  0
   57.2237   -6.8210   -4.9340 C   0  0  0  0  0  0  0  0  0  0  0  0
   54.2449   -6.0459   -6.7667 C   0  0  0  0  0  0  0  0  0  0  0  0
   54.0530   -4.9411   -7.7067 C   0  0  0  0  0  0  0  0  0  0  0  0
   55.1174   -3.9326   -7.7897 C   0  0  0  0  0  0  0  0  0  0  0  0
   56.4100   -4.5920   -8.3864 C   0  0  0  0  0  0  0  0  0  0  0  0
   56.1948   -4.5466   -9.8858 C   0  0  0  0  0  0  0  0  0  0  0  0
   58.4012   -5.5726   -9.8530 C   0  0  0  0  0  0  0  0  0  0  0  0
   57.4777   -4.7006  -10.6469 C   0  0  0  0  0  0  0  0  0  0  0  0
 28 29  1  0  0  0
 29 27  1  0  0  0
 27 26  1  0  0  0
 26 25  1  0  0  0
 25 24  1  0  0  0
 24 23  1  0  0  0
 23 20  1  0  0  0
 20 21  1  0  0  0
 21 22  1  0  0  0
 20 19  1  0  0  0
 19  1  1  0  0  0
  1  2  1  0  0  0
  2  3  2  0  0  0
  3 15  1  0  0  0
 15 16  2  0  0  0
 15 17  1  0  0  0
  3  4  1  0  0  0
  4  5  1  0  0  0
  5  6  1  0  0  0
  5  7  1  0  0  0
  7 10  1  0  0  0
 10 11  1  0  0  0
 11 12  1  0  0  0
 11 13  2  0  0  0
  7  1  1  0  0  0
 17 18  1  0  0  0
  6  8  1  0  0  0
  6  9  1  0  0  0
 10 14  1  0  0  0
M  END
> <minimizedAffinity>
-6.47709

> <CNNscore>
0.2672049701

> <CNNaffinity>
5.4863700867

> <CNN_VS>
1.4659852982

> <CNNaffinity_variance>
0.1788217276

$$$$
[H]OC(=O)C1=C([H])[C@@]([H])(O[C@@]([H])(C([H])([H])C([H])([H])[H])C([H])([H])C([H])([H])C([H])([H])C([H])([H])C([H])([H])C([H])([H])C([H])([H])[H])[C@]([H])(N([H])C(=O)C([H])([H])[H])[C@@]([H])(N([H])[H])C1([H])[H]


 29 29  0  0  0  0  0  0  0  0999 V2000
   55.5734   -5.5722   -4.4677 C   0  0  0  0  0  0  0  0  0  0  0  0
   56.8490   -6.2885   -4.0678 C   0  0  0  0  0  0  0  0  0  0  0  0
   57.2759   -6.1367   -2.8138 C   0  0  0  0  0  0  0  0  0  0  0  0
   56.3691   -5.2610   -1.9792 C   0  0  0  0  0  0  0  0  0  0  0  0
   55.0277   -5.9455   -2.0362 C   0  0  0  0  0  0  0  0  0  0  0  0
   55.1002   -7.2315   -1.3493 N   0  0  0  0  0  0  0  0  0  0  0  0
   54.5772   -6.1056   -3.4621 C   0  0  0  0  0  0  0  0  0  0  0  0
   55.9797   -7.3138   -0.7934 H   0  0  0  0  0  0  0  0  0  0  0  0
   54.2759   -7.3048   -0.6800 H   0  0  0  0  0  0  0  0  0  0  0  0
   53.2722   -5.4897   -3.5338 N   0  0  0  0  0  0  0  0  0  0  0  0
   52.0889   -6.1533   -3.1459 C   0  0  0  0  0  0  0  0  0  0  0  0
   50.7468   -5.5294   -3.2163 C   0  0  0  0  0  0  0  0  0  0  0  0
   52.1719   -7.3309   -2.7194 O   0  0  0  0  0  0  0  0  0  0  0  0
   53.2128   -4.5134   -3.8888 H   0  0  0  0  0  0  0  0  0  0  0  0
   58.4497   -6.7219   -2.2405 C   0  0  0  0  0  0  0  0  0  0  0  0
   58.5571   -7.9538   -1.9831 O   0  0  0  0  0  0  0  0  0  0  0  0
   59.5353   -5.8919   -1.9491 O   0  0  0  0  0  0  0  0  0  0  0  0
   60.4621   -6.2921   -2.1229 H   0  0  0  0  0  0  0  0  0  0  0  0
   55.2971   -5.8912   -5.7528 O   0  0  0  0  0  0  0  0  0  0  0  0
   55.0488   -4.8470   -6.6497 C   0  0  0  0  0  0  0  0  0  0  0  0
   56.2368   -4.1156   -7.1347 C   0  0  0  0  0  0  0  0  0  0  0  0
   57.1126   -5.0139   -8.0103 C   0  0  0  0  0  0  0  0  0  0  0  0
   54.0976   -5.2033   -7.7058 C   0  0  0  0  0  0  0  0  0  0  0  0
   53.3556   -4.2472   -8.5282 C   0  0  0  0  0  0  0  0  0  0  0  0
   52.3234   -3.4423   -7.8624 C   0  0  0  0  0  0  0  0  0  0  0  0
   51.7360   -4.2513   -6.6531 C   0  0  0  0  0  0  0  0  0  0  0  0
   50.2520   -4.3390   -6.9474 C   0  0  0  0  0  0  0  0  0  0  0  0
   50.7632   -6.6997   -7.2429 C   0  0  0  0  0  0  0  0  0  0  0  0
   49.7216   -5.7309   -6.7740 C   0  0  0  0  0  0  0  0  0  0  0  0
 28 29  1  0  0  0
 29 27  1  0  0  0
 27 26  1  0  0  0
 26 25  1  0  0  0
 25 24  1  0  0  0
 24 23  1  0  0  0
 23 20  1  0  0  0
 20 21  1  0  0  0
 21 22  1  0  0  0
 20 19  1  0  0  0
 19  1  1  0  0  0
  1  2  1  0  0  0
  2  3  2  0  0  0
  3 15  1  0  0  0
 15 16  2  0  0  0
 15 17  1  0  0  0
  3  4  1  0  0  0
  4  5  1  0  0  0
  5  6  1  0  0  0
  5  7  1  0  0  0
  7 10  1  0  0  0
 10 11  1  0  0  0
 11 12  1  0  0  0
 11 13  2  0  0  0
  7  1  1  0  0  0
 17 18  1  0  0  0
  6  8  1  0  0  0
  6  9  1  0  0  0
 10 14  1  0  0  0
M  END
> <minimizedAffinity>
-6.13377

> <CNNscore>
0.2634460330

> <CNNaffinity>
5.8721818924

> <CNN_VS>
1.5470030308

> <CNNaffinity_variance>
0.0584050491

$$$$
[H]OC(=O)C1=C([H])[C@@]([H])(O[C@@]([H])(C([H])([H])C([H])([H])[H])C([H])([H])C([H])([H])C([H])([H])C([H])([H])C([H])([H])C([H])([H])C([H])([H])[H])[C@]([H])(N([H])C(=O)C([H])([H])[H])[C@@]([H])(N([H])[H])C1([H])[H]


 29 29  0  0  0  0  0  0  0  0999 V2000
   55.1454   -6.1210   -4.9685 C   0  0  0  0  0  0  0  0  0  0  0  0
   56.3922   -6.9824   -4.9091 C   0  0  0  0  0  0  0  0  0  0  0  0
   57.1298   -6.9264   -3.7997 C   0  0  0  0  0  0  0  0  0  0  0  0
   56.5604   -5.9948   -2.7540 C   0  0  0  0  0  0  0  0  0  0  0  0
   55.1789   -6.5322   -2.4828 C   0  0  0  0  0  0  0  0  0  0  0  0
   55.2751   -7.8451   -1.8521 N   0  0  0  0  0  0  0  0  0  0  0  0
   54.3753   -6.5870   -3.7528 C   0  0  0  0  0  0  0  0  0  0  0  0
   56.2497   -8.0413   -1.5347 H   0  0  0  0  0  0  0  0  0  0  0  0
   54.6386   -7.8585   -0.9991 H   0  0  0  0  0  0  0  0  0  0  0  0
   53.1701   -5.8354   -3.4884 N   0  0  0  0  0  0  0  0  0  0  0  0
   52.0475   -6.3905   -2.8382 C   0  0  0  0  0  0  0  0  0  0  0  0
   50.8077   -5.6272   -2.5632 C   0  0  0  0  0  0  0  0  0  0  0  0
   52.0965   -7.5903   -2.4725 O   0  0  0  0  0  0  0  0  0  0  0  0
   53.1381   -4.8416   -3.7951 H   0  0  0  0  0  0  0  0  0  0  0  0
   58.3360   -7.6539   -3.5454 C   0  0  0  0  0  0  0  0  0  0  0  0
   59.4563   -7.3340   -4.0332 O   0  0  0  0  0  0  0  0  0  0  0  0
   58.2763   -8.7763   -2.7153 O   0  0  0  0  0  0  0  0  0  0  0  0
   59.0763   -8.9117   -2.0900 H   0  0  0  0  0  0  0  0  0  0  0  0
   54.5265   -6.3575   -6.1478 O   0  0  0  0  0  0  0  0  0  0  0  0
   53.9278   -5.2768   -6.8035 C   0  0  0  0  0  0  0  0  0  0  0  0
   54.7866   -4.5413   -7.7538 C   0  0  0  0  0  0  0  0  0  0  0  0
   53.9537   -3.9233   -8.8785 C   0  0  0  0  0  0  0  0  0  0  0  0
   52.5916   -5.5811   -7.3223 C   0  0  0  0  0  0  0  0  0  0  0  0
   51.3949   -5.7762   -6.5033 C   0  0  0  0  0  0  0  0  0  0  0  0
   50.2239   -4.9447   -6.8099 C   0  0  0  0  0  0  0  0  0  0  0  0
   50.6860   -3.4619   -7.0327 C   0  0  0  0  0  0  0  0  0  0  0  0
   49.6036   -2.6302   -6.3745 C   0  0  0  0  0  0  0  0  0  0  0  0
   47.8764   -2.5942   -4.6606 C   0  0  0  0  0  0  0  0  0  0  0  0
   49.2037   -3.1774   -5.0368 C   0  0  0  0  0  0  0  0  0  0  0  0
 28 29  1  0  0  0
 29 27  1  0  0  0
 27 26  1  0  0  0
 26 25  1  0  0  0
 25 24  1  0  0  0
 24 23  1  0  0  0
 23 20  1  0  0  0
 20 21  1  0  0  0
 21 22  1  0  0  0
 20 19  1  0  0  0
 19  1  1  0  0  0
  1  2  1  0  0  0
  2  3  2  0  0  0
  3 15  1  0  0  0
 15 16  2  0  0  0
 15 17  1  0  0  0
  3  4  1  0  0  0
  4  5  1  0  0  0
  5  6  1  0  0  0
  5  7  1  0  0  0
  7 10  1  0  0  0
 10 11  1  0  0  0
 11 12  1  0  0  0
 11 13  2  0  0  0
  7  1  1  0  0  0
 17 18  1  0  0  0
  6  8  1  0  0  0
  6  9  1  0  0  0
 10 14  1  0  0  0
M  END
> <minimizedAffinity>
-6.98754

> <CNNscore>
0.2563714385

> <CNNaffinity>
5.6659135818

> <CNN_VS>
1.4525784254

> <CNNaffinity_variance>
0.1879494339

$$$$
[H]c1c([H])c(-c2c([H])c([H])c(C([H])(C(=O)N([H])C([H])([H])C([H])([H])C([H])([H])C([H])([H])C([H])([H])C([H])([H])N([H])c3c4c(nc5c([H])c([H])c([H])c([H])c35)C([H])([H])C([H])([H])C([H])([H])C4([H])[H])C([H])([H])[H])c([H])c2F)c([H])c([H])c1OC([H])([H])C([H])([H])C([H])([H])C([H])([H])C([H])([H])C([H])([H])O[N+](=O)[O-]


 52 56  0  0  0  0  0  0  0  0999 V2000
   56.0015   -5.6948  -14.7294 C   0  0  0  0  0  0  0  0  0  0  0  0
   56.2361   -4.2638  -14.2551 C   0  0  0  0  0  0  0  0  0  0  0  0
   56.9726   -3.5645  -15.3258 C   0  0  0  0  0  0  0  0  0  0  0  0
   58.2865   -3.2146  -15.1210 C   0  0  0  0  0  0  0  0  0  0  0  0
   59.0227   -2.5369  -16.0940 C   0  0  0  0  0  0  0  0  0  0  0  0
   58.4256   -2.2153  -17.2724 C   0  0  0  0  0  0  0  0  0  0  0  0
   57.1141   -2.5555  -17.4974 C   0  0  0  0  0  0  0  0  0  0  0  0
   56.5025   -2.2372  -18.6631 F   0  0  0  0  0  0  0  0  0  0  0  0
   56.3820   -3.2359  -16.5150 C   0  0  0  0  0  0  0  0  0  0  0  0
   59.1683   -1.5159  -18.3044 C   0  0  0  0  0  0  0  0  0  0  0  0
   60.1810   -2.1227  -19.0129 C   0  0  0  0  0  0  0  0  0  0  0  0
   60.8768   -1.4273  -20.0070 C   0  0  0  0  0  0  0  0  0  0  0  0
   60.5986   -0.1214  -20.3307 C   0  0  0  0  0  0  0  0  0  0  0  0
   59.5588    0.4851  -19.5968 C   0  0  0  0  0  0  0  0  0  0  0  0
   58.8886   -0.2080  -18.6291 C   0  0  0  0  0  0  0  0  0  0  0  0
   61.2345    0.6313  -21.2849 O   0  0  0  0  0  0  0  0  0  0  0  0
   62.5040    1.1970  -21.2049 C   0  0  0  0  0  0  0  0  0  0  0  0
   62.6482    1.9795  -19.9390 C   0  0  0  0  0  0  0  0  0  0  0  0
   64.0875    2.0464  -19.5210 C   0  0  0  0  0  0  0  0  0  0  0  0
   64.2449    1.6131  -18.1041 C   0  0  0  0  0  0  0  0  0  0  0  0
   64.4741    0.1308  -17.9556 C   0  0  0  0  0  0  0  0  0  0  0  0
   65.1725   -0.1446  -16.6556 C   0  0  0  0  0  0  0  0  0  0  0  0
   64.2468    0.1157  -15.5857 O   0  0  0  0  0  0  0  0  0  0  0  0
   64.6874    0.9638  -14.5986 N   0  0  0  0  0  0  0  0  0  0  0  0
   64.2135    2.1037  -14.4368 O   0  0  0  0  0  0  0  0  0  0  0  0
   65.6954    0.4781  -13.7868 O   0  0  0  0  0  0  0  0  0  0  0  0
   56.8407   -4.2003  -12.9262 C   0  0  0  0  0  0  0  0  0  0  0  0
   58.0027   -4.7010  -12.7228 O   0  0  0  0  0  0  0  0  0  0  0  0
   56.2346   -3.6093  -11.7941 N   0  0  0  0  0  0  0  0  0  0  0  0
   55.2900   -3.1885  -11.9110 H   0  0  0  0  0  0  0  0  0  0  0  0
   56.8446   -3.5508  -10.4936 C   0  0  0  0  0  0  0  0  0  0  0  0
   56.3602   -4.6500   -9.5790 C   0  0  0  0  0  0  0  0  0  0  0  0
   57.4761   -5.0680   -8.6422 C   0  0  0  0  0  0  0  0  0  0  0  0
   56.8248   -5.3815   -7.2938 C   0  0  0  0  0  0  0  0  0  0  0  0
   55.3812   -5.0512   -7.3032 C   0  0  0  0  0  0  0  0  0  0  0  0
   54.6271   -5.4256   -6.0987 C   0  0  0  0  0  0  0  0  0  0  0  0
   53.2634   -5.7238   -6.2158 N   0  0  0  0  0  0  0  0  0  0  0  0
   52.9912   -6.3270   -7.0802 H   0  0  0  0  0  0  0  0  0  0  0  0
   52.1561   -5.3958   -5.4313 C   0  0  0  0  0  0  0  0  0  0  0  0
   52.0102   -5.9682   -4.1833 C   0  0  0  0  0  0  0  0  0  0  0  0
   50.9441   -5.6081   -3.3927 C   0  0  0  0  0  0  0  0  0  0  0  0
   50.0490   -4.6893   -3.8555 N   0  0  0  0  0  0  0  0  0  0  0  0
   50.1550   -4.1096   -5.0603 C   0  0  0  0  0  0  0  0  0  0  0  0
   49.2414   -3.1832   -5.5027 C   0  0  0  0  0  0  0  0  0  0  0  0
   49.3646   -2.5981   -6.7310 C   0  0  0  0  0  0  0  0  0  0  0  0
   50.4341   -2.9602   -7.5232 C   0  0  0  0  0  0  0  0  0  0  0  0
   51.3544   -3.8777   -7.1064 C   0  0  0  0  0  0  0  0  0  0  0  0
   51.2212   -4.4661   -5.8591 C   0  0  0  0  0  0  0  0  0  0  0  0
   50.7800   -6.2237   -2.0715 C   0  0  0  0  0  0  0  0  0  0  0  0
   52.0360   -6.6471   -1.3931 C   0  0  0  0  0  0  0  0  0  0  0  0
   53.2830   -6.4998   -2.2197 C   0  0  0  0  0  0  0  0  0  0  0  0
   52.9757   -6.9583   -3.6477 C   0  0  0  0  0  0  0  0  0  0  0  0
  1  2  1  0  0  0
  2 27  1  0  0  0
 27 28  2  0  0  0
 27 29  1  0  0  0
 29 31  1  0  0  0
 31 32  1  0  0  0
 32 33  1  0  0  0
 33 34  1  0  0  0
 34 35  1  0  0  0
 35 36  1  0  0  0
 36 37  1  0  0  0
 37 39  1  0  0  0
 39 40  2  0  0  0
 40 41  1  0  0  0
 41 42  2  0  0  0
 42 43  1  0  0  0
 43 44  2  0  0  0
 44 45  1  0  0  0
 45 46  2  0  0  0
 46 47  1  0  0  0
 47 48  2  0  0  0
 41 49  1  0  0  0
 49 50  1  0  0  0
 50 51  1  0  0  0
 51 52  1  0  0  0
  2  3  1  0  0  0
  3  4  2  0  0  0
  4  5  1  0  0  0
  5  6  2  0  0  0
  6 10  1  0  0  0
 10 11  2  0  0  0
 11 12  1  0  0  0
 12 13  2  0  0  0
 13 16  1  0  0  0
 16 17  1  0  0  0
 17 18  1  0  0  0
 18 19  1  0  0  0
 19 20  1  0  0  0
 20 21  1  0  0  0
 21 22  1  0  0  0
 22 23  1  0  0  0
 23 24  1  0  0  0
 24 25  2  0  0  0
 24 26  1  0  0  0
 13 14  1  0  0  0
 14 15  2  0  0  0
  6  7  1  0  0  0
  7  8  1  0  0  0
  7  9  2  0  0  0
 48 39  1  0  0  0
  9  3  1  0  0  0
 52 40  1  0  0  0
 15 10  1  0  0  0
 48 43  1  0  0  0
 29 30  1  0  0  0
 37 38  1  0  0  0
M  CHG 1  24   1
M  CHG 1  26  -1
M  END
> <minimizedAffinity>
-8.09520

> <CNNscore>
0.2473569810

> <CNNaffinity>
6.7672319412

> <CNN_VS>
1.6739220619

> <CNNaffinity_variance>
0.0578687303

$$$$
[H]c1c([H])c(-c2c([H])c([H])c(C([H])(C(=O)N([H])C([H])([H])C([H])([H])C([H])([H])C([H])([H])C([H])([H])C([H])([H])N([H])c3c4c(nc5c([H])c([H])c([H])c([H])c35)C([H])([H])C([H])([H])C([H])([H])C4([H])[H])C([H])([H])[H])c([H])c2F)c([H])c([H])c1OC([H])([H])C([H])([H])C([H])([H])C([H])([H])C([H])([H])C([H])([H])O[N+](=O)[O-]


 52 56  0  0  0  0  0  0  0  0999 V2000
   58.3562   -5.0771  -10.4928 C   0  0  0  0  0  0  0  0  0  0  0  0
   57.3007   -4.1058  -11.0124 C   0  0  0  0  0  0  0  0  0  0  0  0
   56.1529   -4.1727  -10.0873 C   0  0  0  0  0  0  0  0  0  0  0  0
   56.3406   -4.6632   -8.8165 C   0  0  0  0  0  0  0  0  0  0  0  0
   55.2854   -4.7641   -7.9085 C   0  0  0  0  0  0  0  0  0  0  0  0
   54.0423   -4.3675   -8.2906 C   0  0  0  0  0  0  0  0  0  0  0  0
   53.8329   -3.8746   -9.5554 C   0  0  0  0  0  0  0  0  0  0  0  0
   52.5999   -3.4810   -9.9539 F   0  0  0  0  0  0  0  0  0  0  0  0
   54.8981   -3.7768  -10.4609 C   0  0  0  0  0  0  0  0  0  0  0  0
   52.9275   -4.4556   -7.3657 C   0  0  0  0  0  0  0  0  0  0  0  0
   51.8853   -3.5563   -7.3914 C   0  0  0  0  0  0  0  0  0  0  0  0
   50.8197   -3.6680   -6.4924 C   0  0  0  0  0  0  0  0  0  0  0  0
   50.7494   -4.6619   -5.5465 C   0  0  0  0  0  0  0  0  0  0  0  0
   51.8237   -5.5748   -5.5338 C   0  0  0  0  0  0  0  0  0  0  0  0
   52.8569   -5.4521   -6.4190 C   0  0  0  0  0  0  0  0  0  0  0  0
   49.7462   -4.8386   -4.6279 O   0  0  0  0  0  0  0  0  0  0  0  0
   49.8808   -4.9863   -3.2501 C   0  0  0  0  0  0  0  0  0  0  0  0
   50.6982   -6.1973   -2.9322 C   0  0  0  0  0  0  0  0  0  0  0  0
   51.7044   -5.8890   -1.8629 C   0  0  0  0  0  0  0  0  0  0  0  0
   52.3779   -7.1344   -1.3989 C   0  0  0  0  0  0  0  0  0  0  0  0
   52.6399   -7.1535    0.0853 C   0  0  0  0  0  0  0  0  0  0  0  0
   51.7278   -8.1456    0.7465 C   0  0  0  0  0  0  0  0  0  0  0  0
   51.4677   -9.2076   -0.1885 O   0  0  0  0  0  0  0  0  0  0  0  0
   50.2775   -9.8752   -0.0287 N   0  0  0  0  0  0  0  0  0  0  0  0
   49.1804   -9.3635   -0.3196 O   0  0  0  0  0  0  0  0  0  0  0  0
   50.3651  -11.1584    0.4779 O   0  0  0  0  0  0  0  0  0  0  0  0
   56.9874   -4.3133  -12.4247 C   0  0  0  0  0  0  0  0  0  0  0  0
   57.1102   -5.4770  -12.9473 O   0  0  0  0  0  0  0  0  0  0  0  0
   56.5398   -3.3029  -13.3062 N   0  0  0  0  0  0  0  0  0  0  0  0
   56.4242   -2.3410  -12.9264 H   0  0  0  0  0  0  0  0  0  0  0  0
   56.2314   -3.5240  -14.6928 C   0  0  0  0  0  0  0  0  0  0  0  0
   57.4086   -3.2483  -15.5970 C   0  0  0  0  0  0  0  0  0  0  0  0
   56.9613   -3.2742  -17.0451 C   0  0  0  0  0  0  0  0  0  0  0  0
   55.5646   -2.6513  -17.0857 C   0  0  0  0  0  0  0  0  0  0  0  0
   55.0691   -2.5300  -18.4760 C   0  0  0  0  0  0  0  0  0  0  0  0
   53.7912   -1.8241  -18.6450 C   0  0  0  0  0  0  0  0  0  0  0  0
   53.4101   -0.8707  -17.6921 N   0  0  0  0  0  0  0  0  0  0  0  0
   53.7595   -1.0597  -16.6786 H   0  0  0  0  0  0  0  0  0  0  0  0
   52.6542    0.2998  -17.7800 C   0  0  0  0  0  0  0  0  0  0  0  0
   53.2309    1.4484  -18.2846 C   0  0  0  0  0  0  0  0  0  0  0  0
   52.4715    2.5876  -18.4146 C   0  0  0  0  0  0  0  0  0  0  0  0
   51.1596    2.5623  -18.0434 N   0  0  0  0  0  0  0  0  0  0  0  0
   50.5616    1.4679  -17.5500 C   0  0  0  0  0  0  0  0  0  0  0  0
   49.2364    1.4668  -17.1863 C   0  0  0  0  0  0  0  0  0  0  0  0
   48.6397    0.3430  -16.6888 C   0  0  0  0  0  0  0  0  0  0  0  0
   49.4024   -0.7989  -16.5586 C   0  0  0  0  0  0  0  0  0  0  0  0
   50.7202   -0.8228  -16.9127 C   0  0  0  0  0  0  0  0  0  0  0  0
   51.3168    0.3218  -17.4162 C   0  0  0  0  0  0  0  0  0  0  0  0
   53.0848    3.8125  -18.9389 C   0  0  0  0  0  0  0  0  0  0  0  0
   54.2116    3.6164  -19.8923 C   0  0  0  0  0  0  0  0  0  0  0  0
   54.6425    2.1883  -20.0786 C   0  0  0  0  0  0  0  0  0  0  0  0
   54.6505    1.5013  -18.7105 C   0  0  0  0  0  0  0  0  0  0  0  0
  1  2  1  0  0  0
  2 27  1  0  0  0
 27 28  2  0  0  0
 27 29  1  0  0  0
 29 31  1  0  0  0
 31 32  1  0  0  0
 32 33  1  0  0  0
 33 34  1  0  0  0
 34 35  1  0  0  0
 35 36  1  0  0  0
 36 37  1  0  0  0
 37 39  1  0  0  0
 39 40  2  0  0  0
 40 41  1  0  0  0
 41 42  2  0  0  0
 42 43  1  0  0  0
 43 44  2  0  0  0
 44 45  1  0  0  0
 45 46  2  0  0  0
 46 47  1  0  0  0
 47 48  2  0  0  0
 41 49  1  0  0  0
 49 50  1  0  0  0
 50 51  1  0  0  0
 51 52  1  0  0  0
  2  3  1  0  0  0
  3  4  2  0  0  0
  4  5  1  0  0  0
  5  6  2  0  0  0
  6 10  1  0  0  0
 10 11  2  0  0  0
 11 12  1  0  0  0
 12 13  2  0  0  0
 13 16  1  0  0  0
 16 17  1  0  0  0
 17 18  1  0  0  0
 18 19  1  0  0  0
 19 20  1  0  0  0
 20 21  1  0  0  0
 21 22  1  0  0  0
 22 23  1  0  0  0
 23 24  1  0  0  0
 24 25  2  0  0  0
 24 26  1  0  0  0
 13 14  1  0  0  0
 14 15  2  0  0  0
  6  7  1  0  0  0
  7  8  1  0  0  0
  7  9  2  0  0  0
 48 39  1  0  0  0
  9  3  1  0  0  0
 52 40  1  0  0  0
 15 10  1  0  0  0
 48 43  1  0  0  0
 29 30  1  0  0  0
 37 38  1  0  0  0
M  CHG 1  24   1
M  CHG 1  26  -1
M  END
> <minimizedAffinity>
-9.00918

> <CNNscore>
0.2171896547

> <CNNaffinity>
7.0479674339

> <CNN_VS>
1.5307456255

> <CNNaffinity_variance>
0.3744367957

$$$$
[H]c1c([H])c(-c2c([H])c([H])c(C([H])(C(=O)N([H])C([H])([H])C([H])([H])C([H])([H])C([H])([H])C([H])([H])C([H])([H])N([H])c3c4c(nc5c([H])c([H])c([H])c([H])c35)C([H])([H])C([H])([H])C([H])([H])C4([H])[H])C([H])([H])[H])c([H])c2F)c([H])c([H])c1OC([H])([H])C([H])([H])C([H])([H])C([H])([H])C([H])([H])C([H])([H])O[N+](=O)[O-]


 52 56  0  0  0  0  0  0  0  0999 V2000
   56.2235   -3.5028   -6.7053 C   0  0  0  0  0  0  0  0  0  0  0  0
   56.0373   -4.8644   -7.3680 C   0  0  0  0  0  0  0  0  0  0  0  0
   56.2864   -4.6849   -8.8114 C   0  0  0  0  0  0  0  0  0  0  0  0
   55.2687   -4.2353   -9.6192 C   0  0  0  0  0  0  0  0  0  0  0  0
   55.4466   -4.0652  -10.9931 C   0  0  0  0  0  0  0  0  0  0  0  0
   56.6557   -4.3511  -11.5451 C   0  0  0  0  0  0  0  0  0  0  0  0
   57.6859   -4.8014  -10.7562 C   0  0  0  0  0  0  0  0  0  0  0  0
   58.8946   -5.0966  -11.2910 F   0  0  0  0  0  0  0  0  0  0  0  0
   57.4987   -4.9695   -9.3775 C   0  0  0  0  0  0  0  0  0  0  0  0
   56.8712   -4.1782  -12.9698 C   0  0  0  0  0  0  0  0  0  0  0  0
   57.9430   -3.4700  -13.4650 C   0  0  0  0  0  0  0  0  0  0  0  0
   58.1305   -3.3240  -14.8432 C   0  0  0  0  0  0  0  0  0  0  0  0
   57.2731   -3.8669  -15.7694 C   0  0  0  0  0  0  0  0  0  0  0  0
   56.1814   -4.5895  -15.2462 C   0  0  0  0  0  0  0  0  0  0  0  0
   56.0126   -4.7232  -13.8972 C   0  0  0  0  0  0  0  0  0  0  0  0
   57.3819   -3.7663  -17.1330 O   0  0  0  0  0  0  0  0  0  0  0  0
   57.1187   -2.6483  -17.9197 C   0  0  0  0  0  0  0  0  0  0  0  0
   55.8379   -2.8275  -18.6700 C   0  0  0  0  0  0  0  0  0  0  0  0
   55.0301   -1.5634  -18.6445 C   0  0  0  0  0  0  0  0  0  0  0  0
   53.6360   -1.8385  -18.1963 C   0  0  0  0  0  0  0  0  0  0  0  0
   52.7202   -0.6489  -18.3316 C   0  0  0  0  0  0  0  0  0  0  0  0
   52.2956   -0.1808  -16.9700 C   0  0  0  0  0  0  0  0  0  0  0  0
   53.2534    0.7896  -16.5110 O   0  0  0  0  0  0  0  0  0  0  0  0
   52.7483    1.8388  -15.7819 N   0  0  0  0  0  0  0  0  0  0  0  0
   53.4321    2.4655  -14.9514 O   0  0  0  0  0  0  0  0  0  0  0  0
   51.4264    2.1641  -16.0225 O   0  0  0  0  0  0  0  0  0  0  0  0
   54.7653   -5.4940   -7.0194 C   0  0  0  0  0  0  0  0  0  0  0  0
   54.7360   -6.7156   -6.6331 O   0  0  0  0  0  0  0  0  0  0  0  0
   53.5082   -4.8496   -7.0702 N   0  0  0  0  0  0  0  0  0  0  0  0
   53.4821   -3.8558   -7.3777 H   0  0  0  0  0  0  0  0  0  0  0  0
   52.2655   -5.4817   -6.7197 C   0  0  0  0  0  0  0  0  0  0  0  0
   51.8455   -5.1821   -5.3009 C   0  0  0  0  0  0  0  0  0  0  0  0
   50.4408   -5.6986   -5.0609 C   0  0  0  0  0  0  0  0  0  0  0  0
   49.9556   -5.0646   -3.7558 C   0  0  0  0  0  0  0  0  0  0  0  0
   50.9431   -5.2489   -2.6677 C   0  0  0  0  0  0  0  0  0  0  0  0
   51.0535   -6.6088   -2.1218 C   0  0  0  0  0  0  0  0  0  0  0  0
   52.3259   -7.1516   -1.9013 N   0  0  0  0  0  0  0  0  0  0  0  0
   52.5589   -8.0428   -2.4815 H   0  0  0  0  0  0  0  0  0  0  0  0
   53.3804   -6.7738   -1.0680 C   0  0  0  0  0  0  0  0  0  0  0  0
   53.3630   -7.1394    0.2633 C   0  0  0  0  0  0  0  0  0  0  0  0
   54.4249   -6.8073    1.0716 C   0  0  0  0  0  0  0  0  0  0  0  0
   55.4789   -6.1225    0.5427 N   0  0  0  0  0  0  0  0  0  0  0  0
   55.5351   -5.7497   -0.7444 C   0  0  0  0  0  0  0  0  0  0  0  0
   56.6107   -5.0631   -1.2546 C   0  0  0  0  0  0  0  0  0  0  0  0
   56.6557   -4.6933   -2.5690 C   0  0  0  0  0  0  0  0  0  0  0  0
   55.5899   -5.0268   -3.3787 C   0  0  0  0  0  0  0  0  0  0  0  0
   54.5106   -5.7080   -2.8956 C   0  0  0  0  0  0  0  0  0  0  0  0
   54.4737   -6.0787   -1.5611 C   0  0  0  0  0  0  0  0  0  0  0  0
   54.4034   -7.1838    2.4891 C   0  0  0  0  0  0  0  0  0  0  0  0
   53.6372   -8.4166    2.8207 C   0  0  0  0  0  0  0  0  0  0  0  0
   52.8869   -9.0252    1.6690 C   0  0  0  0  0  0  0  0  0  0  0  0
   52.2378   -7.8974    0.8624 C   0  0  0  0  0  0  0  0  0  0  0  0
  1  2  1  0  0  0
  2 27  1  0  0  0
 27 28  2  0  0  0
 27 29  1  0  0  0
 29 31  1  0  0  0
 31 32  1  0  0  0
 32 33  1  0  0  0
 33 34  1  0  0  0
 34 35  1  0  0  0
 35 36  1  0  0  0
 36 37  1  0  0  0
 37 39  1  0  0  0
 39 40  2  0  0  0
 40 41  1  0  0  0
 41 42  2  0  0  0
 42 43  1  0  0  0
 43 44  2  0  0  0
 44 45  1  0  0  0
 45 46  2  0  0  0
 46 47  1  0  0  0
 47 48  2  0  0  0
 41 49  1  0  0  0
 49 50  1  0  0  0
 50 51  1  0  0  0
 51 52  1  0  0  0
  2  3  1  0  0  0
  3  4  2  0  0  0
  4  5  1  0  0  0
  5  6  2  0  0  0
  6 10  1  0  0  0
 10 11  2  0  0  0
 11 12  1  0  0  0
 12 13  2  0  0  0
 13 16  1  0  0  0
 16 17  1  0  0  0
 17 18  1  0  0  0
 18 19  1  0  0  0
 19 20  1  0  0  0
 20 21  1  0  0  0
 21 22  1  0  0  0
 22 23  1  0  0  0
 23 24  1  0  0  0
 24 25  2  0  0  0
 24 26  1  0  0  0
 13 14  1  0  0  0
 14 15  2  0  0  0
  6  7  1  0  0  0
  7  8  1  0  0  0
  7  9  2  0  0  0
 48 39  1  0  0  0
  9  3  1  0  0  0
 52 40  1  0  0  0
 15 10  1  0  0  0
 48 43  1  0  0  0
 29 30  1  0  0  0
 37 38  1  0  0  0
M  CHG 1  24   1
M  CHG 1  26  -1
M  END
> <minimizedAffinity>
-8.50502

> <CNNscore>
0.2120484412

> <CNNaffinity>
6.7880759239

> <CNN_VS>
1.4394009113

> <CNNaffinity_variance>
0.8625912666

$$$$
[H]c1c([H])c(-c2c([H])c([H])c(C([H])(C(=O)N([H])C([H])([H])C([H])([H])C([H])([H])C([H])([H])C([H])([H])C([H])([H])N([H])c3c4c(nc5c([H])c([H])c([H])c([H])c35)C([H])([H])C([H])([H])C([H])([H])C4([H])[H])C([H])([H])[H])c([H])c2F)c([H])c([H])c1OC([H])([H])C([H])([H])C([H])([H])C([H])([H])C([H])([H])C([H])([H])O[N+](=O)[O-]


 52 56  0  0  0  0  0  0  0  0999 V2000
   58.9662   -4.0277  -12.2281 C   0  0  0  0  0  0  0  0  0  0  0  0
   57.4873   -3.6562  -12.2789 C   0  0  0  0  0  0  0  0  0  0  0  0
   56.9031   -4.0111  -10.9710 C   0  0  0  0  0  0  0  0  0  0  0  0
   57.6410   -4.7608  -10.0855 C   0  0  0  0  0  0  0  0  0  0  0  0
   57.1290   -5.1382   -8.8431 C   0  0  0  0  0  0  0  0  0  0  0  0
   55.8702   -4.7548   -8.5010 C   0  0  0  0  0  0  0  0  0  0  0  0
   55.1160   -4.0056   -9.3708 C   0  0  0  0  0  0  0  0  0  0  0  0
   53.8583   -3.6208   -9.0482 F   0  0  0  0  0  0  0  0  0  0  0  0
   55.6379   -3.6310  -10.6164 C   0  0  0  0  0  0  0  0  0  0  0  0
   55.3140   -5.1278   -7.2136 C   0  0  0  0  0  0  0  0  0  0  0  0
   54.1496   -5.8543   -7.1047 C   0  0  0  0  0  0  0  0  0  0  0  0
   53.6388   -6.2061   -5.8511 C   0  0  0  0  0  0  0  0  0  0  0  0
   54.2550   -5.8545   -4.6746 C   0  0  0  0  0  0  0  0  0  0  0  0
   55.4464   -5.1117   -4.8034 C   0  0  0  0  0  0  0  0  0  0  0  0
   55.9323   -4.7764   -6.0352 C   0  0  0  0  0  0  0  0  0  0  0  0
   53.8190   -6.1539   -3.4090 O   0  0  0  0  0  0  0  0  0  0  0  0
   52.6032   -5.8004   -2.8303 C   0  0  0  0  0  0  0  0  0  0  0  0
   51.6427   -6.9445   -2.8931 C   0  0  0  0  0  0  0  0  0  0  0  0
   50.9118   -7.0921   -1.5912 C   0  0  0  0  0  0  0  0  0  0  0  0
   51.0170   -8.4891   -1.0838 C   0  0  0  0  0  0  0  0  0  0  0  0
   49.8847   -8.8781   -0.1681 C   0  0  0  0  0  0  0  0  0  0  0  0
   50.4147   -9.7043    0.9677 C   0  0  0  0  0  0  0  0  0  0  0  0
   50.2368   -8.9589    2.1851 O   0  0  0  0  0  0  0  0  0  0  0  0
   48.9668   -8.9521    2.7092 N   0  0  0  0  0  0  0  0  0  0  0  0
   48.3892   -9.9930    3.0741 O   0  0  0  0  0  0  0  0  0  0  0  0
   48.3588   -7.7147    2.8103 O   0  0  0  0  0  0  0  0  0  0  0  0
   56.8049   -4.2089  -13.4471 C   0  0  0  0  0  0  0  0  0  0  0  0
   56.4840   -5.4493  -13.4783 O   0  0  0  0  0  0  0  0  0  0  0  0
   56.4493   -3.4671  -14.5967 N   0  0  0  0  0  0  0  0  0  0  0  0
   56.6890   -2.4547  -14.6168 H   0  0  0  0  0  0  0  0  0  0  0  0
   55.7740   -4.0248  -15.7367 C   0  0  0  0  0  0  0  0  0  0  0  0
   56.0967   -3.2898  -17.0153 C   0  0  0  0  0  0  0  0  0  0  0  0
   57.2827   -3.9421  -17.6977 C   0  0  0  0  0  0  0  0  0  0  0  0
   57.9429   -2.8638  -18.5590 C   0  0  0  0  0  0  0  0  0  0  0  0
   57.3917   -1.5225  -18.2591 C   0  0  0  0  0  0  0  0  0  0  0  0
   57.2013   -0.6318  -19.4124 C   0  0  0  0  0  0  0  0  0  0  0  0
   55.9166   -0.4805  -19.9497 N   0  0  0  0  0  0  0  0  0  0  0  0
   55.7970    0.3494  -20.6440 H   0  0  0  0  0  0  0  0  0  0  0  0
   54.7299   -1.1940  -19.7707 C   0  0  0  0  0  0  0  0  0  0  0  0
   54.5332   -2.3749  -20.4585 C   0  0  0  0  0  0  0  0  0  0  0  0
   53.3845   -3.1005  -20.2451 C   0  0  0  0  0  0  0  0  0  0  0  0
   52.4591   -2.6407  -19.3554 N   0  0  0  0  0  0  0  0  0  0  0  0
   52.6124   -1.4999  -18.6669 C   0  0  0  0  0  0  0  0  0  0  0  0
   51.6663   -1.0595  -17.7727 C   0  0  0  0  0  0  0  0  0  0  0  0
   51.8380    0.1027  -17.0755 C   0  0  0  0  0  0  0  0  0  0  0  0
   52.9903    0.8298  -17.2905 C   0  0  0  0  0  0  0  0  0  0  0  0
   53.9442    0.4135  -18.1732 C   0  0  0  0  0  0  0  0  0  0  0  0
   53.7614   -0.7665  -18.8759 C   0  0  0  0  0  0  0  0  0  0  0  0
   53.1674   -4.3490  -20.9836 C   0  0  0  0  0  0  0  0  0  0  0  0
   54.3965   -5.0932  -21.3743 C   0  0  0  0  0  0  0  0  0  0  0  0
   55.6883   -4.3882  -21.0675 C   0  0  0  0  0  0  0  0  0  0  0  0
   55.5286   -2.9071  -21.4205 C   0  0  0  0  0  0  0  0  0  0  0  0
  1  2  1  0  0  0
  2 27  1  0  0  0
 27 28  2  0  0  0
 27 29  1  0  0  0
 29 31  1  0  0  0
 31 32  1  0  0  0
 32 33  1  0  0  0
 33 34  1  0  0  0
 34 35  1  0  0  0
 35 36  1  0  0  0
 36 37  1  0  0  0
 37 39  1  0  0  0
 39 40  2  0  0  0
 40 41  1  0  0  0
 41 42  2  0  0  0
 42 43  1  0  0  0
 43 44  2  0  0  0
 44 45  1  0  0  0
 45 46  2  0  0  0
 46 47  1  0  0  0
 47 48  2  0  0  0
 41 49  1  0  0  0
 49 50  1  0  0  0
 50 51  1  0  0  0
 51 52  1  0  0  0
  2  3  1  0  0  0
  3  4  2  0  0  0
  4  5  1  0  0  0
  5  6  2  0  0  0
  6 10  1  0  0  0
 10 11  2  0  0  0
 11 12  1  0  0  0
 12 13  2  0  0  0
 13 16  1  0  0  0
 16 17  1  0  0  0
 17 18  1  0  0  0
 18 19  1  0  0  0
 19 20  1  0  0  0
 20 21  1  0  0  0
 21 22  1  0  0  0
 22 23  1  0  0  0
 23 24  1  0  0  0
 24 25  2  0  0  0
 24 26  1  0  0  0
 13 14  1  0  0  0
 14 15  2  0  0  0
  6  7  1  0  0  0
  7  8  1  0  0  0
  7  9  2  0  0  0
 48 39  1  0  0  0
  9  3  1  0  0  0
 52 40  1  0  0  0
 15 10  1  0  0  0
 48 43  1  0  0  0
 29 30  1  0  0  0
 37 38  1  0  0  0
M  CHG 1  24   1
M  CHG 1  26  -1
M  END
> <minimizedAffinity>
-7.52997

> <CNNscore>
0.1954909563

> <CNNaffinity>
6.6507925987

> <CNN_VS>
1.3001698256

> <CNNaffinity_variance>
0.2155743092

$$$$
[H]c1c([H])c(-c2c([H])c([H])c(C([H])(C(=O)N([H])C([H])([H])C([H])([H])C([H])([H])C([H])([H])C([H])([H])C([H])([H])N([H])c3c4c(nc5c([H])c([H])c([H])c([H])c35)C([H])([H])C([H])([H])C([H])([H])C4([H])[H])C([H])([H])[H])c([H])c2F)c([H])c([H])c1OC([H])([H])C([H])([H])C([H])([H])C([H])([H])C([H])([H])C([H])([H])O[N+](=O)[O-]


 52 56  0  0  0  0  0  0  0  0999 V2000
   56.0803   -3.8840   -6.4266 C   0  0  0  0  0  0  0  0  0  0  0  0
   55.6241   -5.0391   -7.3128 C   0  0  0  0  0  0  0  0  0  0  0  0
   56.1112   -4.7606   -8.6777 C   0  0  0  0  0  0  0  0  0  0  0  0
   55.2679   -4.1628   -9.5843 C   0  0  0  0  0  0  0  0  0  0  0  0
   55.6731   -3.8936  -10.8925 C   0  0  0  0  0  0  0  0  0  0  0  0
   56.9323   -4.2310  -11.2788 C   0  0  0  0  0  0  0  0  0  0  0  0
   57.7907   -4.8290  -10.3890 C   0  0  0  0  0  0  0  0  0  0  0  0
   59.0461   -5.1770  -10.7594 F   0  0  0  0  0  0  0  0  0  0  0  0
   57.3757   -5.0958   -9.0772 C   0  0  0  0  0  0  0  0  0  0  0  0
   57.3827   -3.9579  -12.6310 C   0  0  0  0  0  0  0  0  0  0  0  0
   56.5243   -3.9924  -13.7070 C   0  0  0  0  0  0  0  0  0  0  0  0
   56.9836   -3.7188  -14.9994 C   0  0  0  0  0  0  0  0  0  0  0  0
   58.2938   -3.4058  -15.2695 C   0  0  0  0  0  0  0  0  0  0  0  0
   59.1594   -3.3739  -14.1572 C   0  0  0  0  0  0  0  0  0  0  0  0
   58.6951   -3.6432  -12.9011 C   0  0  0  0  0  0  0  0  0  0  0  0
   58.8245   -3.1304  -16.5040 O   0  0  0  0  0  0  0  0  0  0  0  0
   58.1461   -3.0642  -17.7178 C   0  0  0  0  0  0  0  0  0  0  0  0
   58.0860   -1.6523  -18.2062 C   0  0  0  0  0  0  0  0  0  0  0  0
   58.7449   -1.5296  -19.5485 C   0  0  0  0  0  0  0  0  0  0  0  0
   60.2224   -1.6783  -19.4252 C   0  0  0  0  0  0  0  0  0  0  0  0
   60.9910   -0.5533  -20.0699 C   0  0  0  0  0  0  0  0  0  0  0  0
   60.4577    0.7644  -19.5873 C   0  0  0  0  0  0  0  0  0  0  0  0
   61.5322    1.4751  -18.9470 O   0  0  0  0  0  0  0  0  0  0  0  0
   62.0921    2.5015  -19.6685 N   0  0  0  0  0  0  0  0  0  0  0  0
   61.6995    2.8075  -20.8098 O   0  0  0  0  0  0  0  0  0  0  0  0
   63.1254    3.1828  -19.0527 O   0  0  0  0  0  0  0  0  0  0  0  0
   54.1930   -5.3112   -7.1953 C   0  0  0  0  0  0  0  0  0  0  0  0
   53.7708   -6.5192   -7.1266 O   0  0  0  0  0  0  0  0  0  0  0  0
   53.1870   -4.3193   -7.1471 N   0  0  0  0  0  0  0  0  0  0  0  0
   53.4822   -3.3228   -7.1989 H   0  0  0  0  0  0  0  0  0  0  0  0
   51.7828   -4.6031   -7.0270 C   0  0  0  0  0  0  0  0  0  0  0  0
   50.9368   -3.3530   -7.0544 C   0  0  0  0  0  0  0  0  0  0  0  0
   49.9156   -3.3990   -5.9352 C   0  0  0  0  0  0  0  0  0  0  0  0
   49.9934   -4.8000   -5.3255 C   0  0  0  0  0  0  0  0  0  0  0  0
   49.6113   -4.7869   -3.8948 C   0  0  0  0  0  0  0  0  0  0  0  0
   50.6877   -5.0791   -2.9380 C   0  0  0  0  0  0  0  0  0  0  0  0
   51.4343   -6.2542   -3.0926 N   0  0  0  0  0  0  0  0  0  0  0  0
   51.2721   -6.7894   -4.0267 H   0  0  0  0  0  0  0  0  0  0  0  0
   52.3652   -6.8944   -2.2724 C   0  0  0  0  0  0  0  0  0  0  0  0
   53.7148   -6.7158   -2.5031 C   0  0  0  0  0  0  0  0  0  0  0  0
   54.6301   -7.3088   -1.6653 C   0  0  0  0  0  0  0  0  0  0  0  0
   54.1879   -8.0631   -0.6189 N   0  0  0  0  0  0  0  0  0  0  0  0
   52.8868   -8.2605   -0.3599 C   0  0  0  0  0  0  0  0  0  0  0  0
   52.4662   -9.0224    0.7037 C   0  0  0  0  0  0  0  0  0  0  0  0
   51.1372   -9.2115    0.9574 C   0  0  0  0  0  0  0  0  0  0  0  0
   50.2201   -8.6164    0.1164 C   0  0  0  0  0  0  0  0  0  0  0  0
   50.6129   -7.8555   -0.9463 C   0  0  0  0  0  0  0  0  0  0  0  0
   51.9630   -7.6695   -1.1959 C   0  0  0  0  0  0  0  0  0  0  0  0
   56.0644   -7.1307   -1.9153 C   0  0  0  0  0  0  0  0  0  0  0  0
   56.4535   -5.8551   -2.5775 C   0  0  0  0  0  0  0  0  0  0  0  0
   55.3031   -4.9905   -3.0122 C   0  0  0  0  0  0  0  0  0  0  0  0
   54.2247   -5.8888   -3.6236 C   0  0  0  0  0  0  0  0  0  0  0  0
  1  2  1  0  0  0
  2 27  1  0  0  0
 27 28  2  0  0  0
 27 29  1  0  0  0
 29 31  1  0  0  0
 31 32  1  0  0  0
 32 33  1  0  0  0
 33 34  1  0  0  0
 34 35  1  0  0  0
 35 36  1  0  0  0
 36 37  1  0  0  0
 37 39  1  0  0  0
 39 40  2  0  0  0
 40 41  1  0  0  0
 41 42  2  0  0  0
 42 43  1  0  0  0
 43 44  2  0  0  0
 44 45  1  0  0  0
 45 46  2  0  0  0
 46 47  1  0  0  0
 47 48  2  0  0  0
 41 49  1  0  0  0
 49 50  1  0  0  0
 50 51  1  0  0  0
 51 52  1  0  0  0
  2  3  1  0  0  0
  3  4  2  0  0  0
  4  5  1  0  0  0
  5  6  2  0  0  0
  6 10  1  0  0  0
 10 11  2  0  0  0
 11 12  1  0  0  0
 12 13  2  0  0  0
 13 16  1  0  0  0
 16 17  1  0  0  0
 17 18  1  0  0  0
 18 19  1  0  0  0
 19 20  1  0  0  0
 20 21  1  0  0  0
 21 22  1  0  0  0
 22 23  1  0  0  0
 23 24  1  0  0  0
 24 25  2  0  0  0
 24 26  1  0  0  0
 13 14  1  0  0  0
 14 15  2  0  0  0
  6  7  1  0  0  0
  7  8  1  0  0  0
  7  9  2  0  0  0
 48 39  1  0  0  0
  9  3  1  0  0  0
 52 40  1  0  0  0
 15 10  1  0  0  0
 48 43  1  0  0  0
 29 30  1  0  0  0
 37 38  1  0  0  0
M  CHG 1  24   1
M  CHG 1  26  -1
M  END
> <minimizedAffinity>
-8.46750

> <CNNscore>
0.1779850274

> <CNNaffinity>
6.6950850487

> <CNN_VS>
1.1916248798

> <CNNaffinity_variance>
0.6492472887

$$$$
[H]c1c([H])c(-c2c([H])c([H])c(C([H])(C(=O)N([H])C([H])([H])C([H])([H])C([H])([H])C([H])([H])C([H])([H])C([H])([H])N([H])c3c4c(nc5c([H])c([H])c([H])c([H])c35)C([H])([H])C([H])([H])C([H])([H])C4([H])[H])C([H])([H])[H])c([H])c2F)c([H])c([H])c1OC([H])([H])C([H])([H])C([H])([H])C([H])([H])C([H])([H])C([H])([H])O[N+](=O)[O-]


 52 56  0  0  0  0  0  0  0  0999 V2000
   56.1036   -3.7893   -6.6016 C   0  0  0  0  0  0  0  0  0  0  0  0
   55.6551   -4.9765   -7.4485 C   0  0  0  0  0  0  0  0  0  0  0  0
   56.0839   -4.7099   -8.8352 C   0  0  0  0  0  0  0  0  0  0  0  0
   55.1878   -4.1634   -9.7234 C   0  0  0  0  0  0  0  0  0  0  0  0
   55.5371   -3.9079  -11.0504 C   0  0  0  0  0  0  0  0  0  0  0  0
   56.7940   -4.2068  -11.4740 C   0  0  0  0  0  0  0  0  0  0  0  0
   57.7047   -4.7533  -10.6031 C   0  0  0  0  0  0  0  0  0  0  0  0
   58.9586   -5.0627  -11.0105 F   0  0  0  0  0  0  0  0  0  0  0  0
   57.3456   -5.0067   -9.2723 C   0  0  0  0  0  0  0  0  0  0  0  0
   57.1868   -3.9467  -12.8466 C   0  0  0  0  0  0  0  0  0  0  0  0
   58.4399   -3.4770  -13.1704 C   0  0  0  0  0  0  0  0  0  0  0  0
   58.7947   -3.2407  -14.5025 C   0  0  0  0  0  0  0  0  0  0  0  0
   57.9314   -3.4577  -15.5490 C   0  0  0  0  0  0  0  0  0  0  0  0
   56.6529   -3.9392  -15.2007 C   0  0  0  0  0  0  0  0  0  0  0  0
   56.3220   -4.1653  -13.8948 C   0  0  0  0  0  0  0  0  0  0  0  0
   58.1979   -3.2472  -16.8780 O   0  0  0  0  0  0  0  0  0  0  0  0
   57.4998   -2.4249  -17.7580 C   0  0  0  0  0  0  0  0  0  0  0  0
   58.3865   -1.3345  -18.2685 C   0  0  0  0  0  0  0  0  0  0  0  0
   57.8188   -0.7359  -19.5216 C   0  0  0  0  0  0  0  0  0  0  0  0
   56.4424   -0.2185  -19.2812 C   0  0  0  0  0  0  0  0  0  0  0  0
   56.3679    1.2867  -19.2498 C   0  0  0  0  0  0  0  0  0  0  0  0
   54.9363    1.7189  -19.1186 C   0  0  0  0  0  0  0  0  0  0  0  0
   54.2392    0.7298  -18.3406 O   0  0  0  0  0  0  0  0  0  0  0  0
   53.2859    1.2055  -17.4730 N   0  0  0  0  0  0  0  0  0  0  0  0
   53.5232    2.1088  -16.6498 O   0  0  0  0  0  0  0  0  0  0  0  0
   52.0366    0.6207  -17.5644 O   0  0  0  0  0  0  0  0  0  0  0  0
   54.2390   -5.2928   -7.2743 C   0  0  0  0  0  0  0  0  0  0  0  0
   53.8674   -6.5065   -7.0972 O   0  0  0  0  0  0  0  0  0  0  0  0
   53.1950   -4.3398   -7.2823 N   0  0  0  0  0  0  0  0  0  0  0  0
   53.4486   -3.3404   -7.4222 H   0  0  0  0  0  0  0  0  0  0  0  0
   51.8063   -4.6666   -7.1051 C   0  0  0  0  0  0  0  0  0  0  0  0
   50.9142   -3.4505   -7.1711 C   0  0  0  0  0  0  0  0  0  0  0  0
   49.9904   -3.4251   -5.9695 C   0  0  0  0  0  0  0  0  0  0  0  0
   50.2709   -4.6999   -5.1716 C   0  0  0  0  0  0  0  0  0  0  0  0
   49.6210   -4.6569   -3.8416 C   0  0  0  0  0  0  0  0  0  0  0  0
   50.4189   -5.1672   -2.7180 C   0  0  0  0  0  0  0  0  0  0  0  0
   51.0340   -6.4203   -2.8349 N   0  0  0  0  0  0  0  0  0  0  0  0
   50.6515   -7.0542   -3.6329 H   0  0  0  0  0  0  0  0  0  0  0  0
   52.0615   -7.0365   -2.1181 C   0  0  0  0  0  0  0  0  0  0  0  0
   53.3711   -6.8689   -2.5219 C   0  0  0  0  0  0  0  0  0  0  0  0
   54.3853   -7.4374   -1.7873 C   0  0  0  0  0  0  0  0  0  0  0  0
   54.0790   -8.1570   -0.6702 N   0  0  0  0  0  0  0  0  0  0  0  0
   52.8210   -8.3426   -0.2437 C   0  0  0  0  0  0  0  0  0  0  0  0
   52.5383   -9.0692    0.8880 C   0  0  0  0  0  0  0  0  0  0  0  0
   51.2520   -9.2466    1.3125 C   0  0  0  0  0  0  0  0  0  0  0  0
   50.2357   -8.6761    0.5748 C   0  0  0  0  0  0  0  0  0  0  0  0
   50.4909   -7.9504   -0.5525 C   0  0  0  0  0  0  0  0  0  0  0  0
   51.7987   -7.7760   -0.9755 C   0  0  0  0  0  0  0  0  0  0  0  0
   55.7765   -7.2712   -2.2210 C   0  0  0  0  0  0  0  0  0  0  0  0
   56.0776   -6.0183   -2.9671 C   0  0  0  0  0  0  0  0  0  0  0  0
   54.8806   -5.1649   -3.2812 C   0  0  0  0  0  0  0  0  0  0  0  0
   53.7352   -6.0793   -3.7234 C   0  0  0  0  0  0  0  0  0  0  0  0
  1  2  1  0  0  0
  2 27  1  0  0  0
 27 28  2  0  0  0
 27 29  1  0  0  0
 29 31  1  0  0  0
 31 32  1  0  0  0
 32 33  1  0  0  0
 33 34  1  0  0  0
 34 35  1  0  0  0
 35 36  1  0  0  0
 36 37  1  0  0  0
 37 39  1  0  0  0
 39 40  2  0  0  0
 40 41  1  0  0  0
 41 42  2  0  0  0
 42 43  1  0  0  0
 43 44  2  0  0  0
 44 45  1  0  0  0
 45 46  2  0  0  0
 46 47  1  0  0  0
 47 48  2  0  0  0
 41 49  1  0  0  0
 49 50  1  0  0  0
 50 51  1  0  0  0
 51 52  1  0  0  0
  2  3  1  0  0  0
  3  4  2  0  0  0
  4  5  1  0  0  0
  5  6  2  0  0  0
  6 10  1  0  0  0
 10 11  2  0  0  0
 11 12  1  0  0  0
 12 13  2  0  0  0
 13 16  1  0  0  0
 16 17  1  0  0  0
 17 18  1  0  0  0
 18 19  1  0  0  0
 19 20  1  0  0  0
 20 21  1  0  0  0
 21 22  1  0  0  0
 22 23  1  0  0  0
 23 24  1  0  0  0
 24 25  2  0  0  0
 24 26  1  0  0  0
 13 14  1  0  0  0
 14 15  2  0  0  0
  6  7  1  0  0  0
  7  8  1  0  0  0
  7  9  2  0  0  0
 48 39  1  0  0  0
  9  3  1  0  0  0
 52 40  1  0  0  0
 15 10  1  0  0  0
 48 43  1  0  0  0
 29 30  1  0  0  0
 37 38  1  0  0  0
M  CHG 1  24   1
M  CHG 1  26  -1
M  END
> <minimizedAffinity>
-8.63453

> <CNNscore>
0.1478986591

> <CNNaffinity>
6.8673372269

> <CNN_VS>
1.0156699419

> <CNNaffinity_variance>
0.9189102054

$$$$
[H]c1c([H])c(-c2c([H])c([H])c(C([H])(C(=O)N([H])C([H])([H])C([H])([H])C([H])([H])C([H])([H])C([H])([H])C([H])([H])N([H])c3c4c(nc5c([H])c([H])c([H])c([H])c35)C([H])([H])C([H])([H])C([H])([H])C4([H])[H])C([H])([H])[H])c([H])c2F)c([H])c([H])c1OC([H])([H])C([H])([H])C([H])([H])C([H])([H])C([H])([H])C([H])([H])O[N+](=O)[O-]


 52 56  0  0  0  0  0  0  0  0999 V2000
   52.8404   -5.2642   -6.8728 C   0  0  0  0  0  0  0  0  0  0  0  0
   54.2464   -4.7602   -6.5616 C   0  0  0  0  0  0  0  0  0  0  0  0
   54.9406   -4.5798   -7.8513 C   0  0  0  0  0  0  0  0  0  0  0  0
   54.2695   -3.9986   -8.9013 C   0  0  0  0  0  0  0  0  0  0  0  0
   54.8741   -3.8208  -10.1466 C   0  0  0  0  0  0  0  0  0  0  0  0
   56.1576   -4.2325  -10.3249 C   0  0  0  0  0  0  0  0  0  0  0  0
   56.8460   -4.8154   -9.2893 C   0  0  0  0  0  0  0  0  0  0  0  0
   58.1228   -5.2366   -9.4519 F   0  0  0  0  0  0  0  0  0  0  0  0
   56.2314   -4.9902   -8.0420 C   0  0  0  0  0  0  0  0  0  0  0  0
   56.8134   -4.0552  -11.6073 C   0  0  0  0  0  0  0  0  0  0  0  0
   56.1068   -4.0089  -12.7880 C   0  0  0  0  0  0  0  0  0  0  0  0
   56.7635   -3.8306  -14.0099 C   0  0  0  0  0  0  0  0  0  0  0  0
   58.1273   -3.6942  -14.1052 C   0  0  0  0  0  0  0  0  0  0  0  0
   58.8360   -3.7429  -12.8874 C   0  0  0  0  0  0  0  0  0  0  0  0
   58.1796   -3.9174  -11.7022 C   0  0  0  0  0  0  0  0  0  0  0  0
   58.8469   -3.5216  -15.2601 O   0  0  0  0  0  0  0  0  0  0  0  0
   60.0160   -2.7835  -15.4229 C   0  0  0  0  0  0  0  0  0  0  0  0
   61.1070   -3.6472  -15.9699 C   0  0  0  0  0  0  0  0  0  0  0  0
   61.9426   -4.2095  -14.8579 C   0  0  0  0  0  0  0  0  0  0  0  0
   62.5315   -3.1147  -14.0365 C   0  0  0  0  0  0  0  0  0  0  0  0
   63.8134   -2.5642  -14.6071 C   0  0  0  0  0  0  0  0  0  0  0  0
   64.2408   -1.3599  -13.8195 C   0  0  0  0  0  0  0  0  0  0  0  0
   63.0820   -0.5376  -13.5942 O   0  0  0  0  0  0  0  0  0  0  0  0
   62.9782    0.0318  -12.3481 N   0  0  0  0  0  0  0  0  0  0  0  0
   63.9754    0.3596  -11.6785 O   0  0  0  0  0  0  0  0  0  0  0  0
   61.6940    0.2225  -11.8733 O   0  0  0  0  0  0  0  0  0  0  0  0
   54.9410   -5.5912   -5.5804 C   0  0  0  0  0  0  0  0  0  0  0  0
   55.8834   -5.0947   -4.8679 O   0  0  0  0  0  0  0  0  0  0  0  0
   54.6547   -6.9533   -5.3333 N   0  0  0  0  0  0  0  0  0  0  0  0
   53.8960   -7.4002   -5.8878 H   0  0  0  0  0  0  0  0  0  0  0  0
   55.3446   -7.7566   -4.3609 C   0  0  0  0  0  0  0  0  0  0  0  0
   54.5412   -7.9500   -3.0974 C   0  0  0  0  0  0  0  0  0  0  0  0
   53.2599   -7.1439   -3.1747 C   0  0  0  0  0  0  0  0  0  0  0  0
   52.5315   -7.3464   -1.8447 C   0  0  0  0  0  0  0  0  0  0  0  0
   52.7560   -8.7088   -1.3095 C   0  0  0  0  0  0  0  0  0  0  0  0
   51.5515   -9.5229   -1.0946 C   0  0  0  0  0  0  0  0  0  0  0  0
   51.2483   -9.9593    0.2015 N   0  0  0  0  0  0  0  0  0  0  0  0
   51.8527  -10.7876    0.5672 H   0  0  0  0  0  0  0  0  0  0  0  0
   50.3054   -9.5388    1.1413 C   0  0  0  0  0  0  0  0  0  0  0  0
   49.0356  -10.0807    1.1236 C   0  0  0  0  0  0  0  0  0  0  0  0
   48.1227   -9.7003    2.0793 C   0  0  0  0  0  0  0  0  0  0  0  0
   48.4889   -8.7939    3.0301 N   0  0  0  0  0  0  0  0  0  0  0  0
   49.7115   -8.2450    3.0827 C   0  0  0  0  0  0  0  0  0  0  0  0
   50.0574   -7.3359    4.0536 C   0  0  0  0  0  0  0  0  0  0  0  0
   51.3081   -6.7880    4.0970 C   0  0  0  0  0  0  0  0  0  0  0  0
   52.2228   -7.1701    3.1378 C   0  0  0  0  0  0  0  0  0  0  0  0
   51.9031   -8.0707    2.1636 C   0  0  0  0  0  0  0  0  0  0  0  0
   50.6321   -8.6211    2.1274 C   0  0  0  0  0  0  0  0  0  0  0  0
   46.7693  -10.2652    2.0555 C   0  0  0  0  0  0  0  0  0  0  0  0
   46.6490  -11.6361    1.4869 C   0  0  0  0  0  0  0  0  0  0  0  0
   47.9162  -12.1915    0.8990 C   0  0  0  0  0  0  0  0  0  0  0  0
   48.6140  -11.0794    0.1115 C   0  0  0  0  0  0  0  0  0  0  0  0
  1  2  1  0  0  0
  2 27  1  0  0  0
 27 28  2  0  0  0
 27 29  1  0  0  0
 29 31  1  0  0  0
 31 32  1  0  0  0
 32 33  1  0  0  0
 33 34  1  0  0  0
 34 35  1  0  0  0
 35 36  1  0  0  0
 36 37  1  0  0  0
 37 39  1  0  0  0
 39 40  2  0  0  0
 40 41  1  0  0  0
 41 42  2  0  0  0
 42 43  1  0  0  0
 43 44  2  0  0  0
 44 45  1  0  0  0
 45 46  2  0  0  0
 46 47  1  0  0  0
 47 48  2  0  0  0
 41 49  1  0  0  0
 49 50  1  0  0  0
 50 51  1  0  0  0
 51 52  1  0  0  0
  2  3  1  0  0  0
  3  4  2  0  0  0
  4  5  1  0  0  0
  5  6  2  0  0  0
  6 10  1  0  0  0
 10 11  2  0  0  0
 11 12  1  0  0  0
 12 13  2  0  0  0
 13 16  1  0  0  0
 16 17  1  0  0  0
 17 18  1  0  0  0
 18 19  1  0  0  0
 19 20  1  0  0  0
 20 21  1  0  0  0
 21 22  1  0  0  0
 22 23  1  0  0  0
 23 24  1  0  0  0
 24 25  2  0  0  0
 24 26  1  0  0  0
 13 14  1  0  0  0
 14 15  2  0  0  0
  6  7  1  0  0  0
  7  8  1  0  0  0
  7  9  2  0  0  0
 48 39  1  0  0  0
  9  3  1  0  0  0
 52 40  1  0  0  0
 15 10  1  0  0  0
 48 43  1  0  0  0
 29 30  1  0  0  0
 37 38  1  0  0  0
M  CHG 1  24   1
M  CHG 1  26  -1
M  END
> <minimizedAffinity>
-8.54318

> <CNNscore>
0.1344682723

> <CNNaffinity>
6.2126321793

> <CNN_VS>
0.8354018927

> <CNNaffinity_variance>
0.1777820885

$$$$
[H]c1c([H])c(-c2c([H])c([H])c(C([H])(C(=O)N([H])C([H])([H])C([H])([H])C([H])([H])C([H])([H])C([H])([H])C([H])([H])N([H])c3c4c(nc5c([H])c([H])c([H])c([H])c35)C([H])([H])C([H])([H])C([H])([H])C4([H])[H])C([H])([H])[H])c([H])c2F)c([H])c([H])c1OC([H])([H])C([H])([H])C([H])([H])C([H])([H])C([H])([H])C([H])([H])O[N+](=O)[O-]


 52 56  0  0  0  0  0  0  0  0999 V2000
   59.3607  -10.7960   -0.3729 C   0  0  0  0  0  0  0  0  0  0  0  0
   58.6914   -9.5453    0.1889 C   0  0  0  0  0  0  0  0  0  0  0  0
   58.0472   -8.8498   -0.9421 C   0  0  0  0  0  0  0  0  0  0  0  0
   56.7332   -8.4600   -0.8321 C   0  0  0  0  0  0  0  0  0  0  0  0
   56.0720   -7.8149   -1.8783 C   0  0  0  0  0  0  0  0  0  0  0  0
   56.7441   -7.5662   -3.0337 C   0  0  0  0  0  0  0  0  0  0  0  0
   58.0572   -7.9472   -3.1645 C   0  0  0  0  0  0  0  0  0  0  0  0
   58.7392   -7.7126   -4.3108 F   0  0  0  0  0  0  0  0  0  0  0  0
   58.7136   -8.5946   -2.1090 C   0  0  0  0  0  0  0  0  0  0  0  0
   56.0837   -6.8919   -4.1360 C   0  0  0  0  0  0  0  0  0  0  0  0
   56.1746   -5.5302   -4.3182 C   0  0  0  0  0  0  0  0  0  0  0  0
   55.5332   -4.9064   -5.3931 C   0  0  0  0  0  0  0  0  0  0  0  0
   54.7869   -5.6002   -6.3146 C   0  0  0  0  0  0  0  0  0  0  0  0
   54.7043   -6.9933   -6.1144 C   0  0  0  0  0  0  0  0  0  0  0  0
   55.3370   -7.5875   -5.0596 C   0  0  0  0  0  0  0  0  0  0  0  0
   54.1243   -5.0659   -7.3902 O   0  0  0  0  0  0  0  0  0  0  0  0
   52.7475   -5.0060   -7.5876 C   0  0  0  0  0  0  0  0  0  0  0  0
   52.3310   -3.6146   -7.9428 C   0  0  0  0  0  0  0  0  0  0  0  0
   51.1377   -3.1983   -7.1344 C   0  0  0  0  0  0  0  0  0  0  0  0
   50.0813   -4.2483   -7.1760 C   0  0  0  0  0  0  0  0  0  0  0  0
   50.1726   -5.2318   -6.0374 C   0  0  0  0  0  0  0  0  0  0  0  0
   50.3417   -4.4912   -4.7426 C   0  0  0  0  0  0  0  0  0  0  0  0
   49.2652   -4.8694   -3.8663 O   0  0  0  0  0  0  0  0  0  0  0  0
   48.2328   -3.9697   -3.7546 N   0  0  0  0  0  0  0  0  0  0  0  0
   48.2922   -2.8220   -4.2337 O   0  0  0  0  0  0  0  0  0  0  0  0
   47.1135   -4.4121   -3.0745 O   0  0  0  0  0  0  0  0  0  0  0  0
   59.5983   -8.7329    0.9970 C   0  0  0  0  0  0  0  0  0  0  0  0
   60.8646   -8.9169    0.9254 O   0  0  0  0  0  0  0  0  0  0  0  0
   59.1884   -7.7160    1.8894 N   0  0  0  0  0  0  0  0  0  0  0  0
   58.1687   -7.5297    1.9806 H   0  0  0  0  0  0  0  0  0  0  0  0
   60.0937   -6.9221    2.6747 C   0  0  0  0  0  0  0  0  0  0  0  0
   59.4712   -5.6279    3.1406 C   0  0  0  0  0  0  0  0  0  0  0  0
   57.9853   -5.6355    2.8413 C   0  0  0  0  0  0  0  0  0  0  0  0
   57.7776   -4.7384    1.6196 C   0  0  0  0  0  0  0  0  0  0  0  0
   56.6033   -5.1704    0.8275 C   0  0  0  0  0  0  0  0  0  0  0  0
   55.4048   -4.3275    0.9405 C   0  0  0  0  0  0  0  0  0  0  0  0
   54.1680   -4.9348    1.1928 N   0  0  0  0  0  0  0  0  0  0  0  0
   53.4496   -4.3212    1.7337 H   0  0  0  0  0  0  0  0  0  0  0  0
   53.6577   -6.1974    0.8853 C   0  0  0  0  0  0  0  0  0  0  0  0
   52.9793   -6.3887   -0.3020 C   0  0  0  0  0  0  0  0  0  0  0  0
   52.5187   -7.6436   -0.6251 C   0  0  0  0  0  0  0  0  0  0  0  0
   52.7415   -8.6790    0.2338 N   0  0  0  0  0  0  0  0  0  0  0  0
   53.3962   -8.5356    1.3956 C   0  0  0  0  0  0  0  0  0  0  0  0
   53.6114   -9.5960    2.2428 C   0  0  0  0  0  0  0  0  0  0  0  0
   54.2835   -9.4355    3.4213 C   0  0  0  0  0  0  0  0  0  0  0  0
   54.7449   -8.1764    3.7444 C   0  0  0  0  0  0  0  0  0  0  0  0
   54.5436   -7.1077    2.9198 C   0  0  0  0  0  0  0  0  0  0  0  0
   53.8607   -7.2801    1.7267 C   0  0  0  0  0  0  0  0  0  0  0  0
   51.7871   -7.8471   -1.8800 C   0  0  0  0  0  0  0  0  0  0  0  0
   52.1485   -6.9311   -2.9969 C   0  0  0  0  0  0  0  0  0  0  0  0
   53.1210   -5.8435   -2.6347 C   0  0  0  0  0  0  0  0  0  0  0  0
   52.7356   -5.2851   -1.2623 C   0  0  0  0  0  0  0  0  0  0  0  0
  1  2  1  0  0  0
  2 27  1  0  0  0
 27 28  2  0  0  0
 27 29  1  0  0  0
 29 31  1  0  0  0
 31 32  1  0  0  0
 32 33  1  0  0  0
 33 34  1  0  0  0
 34 35  1  0  0  0
 35 36  1  0  0  0
 36 37  1  0  0  0
 37 39  1  0  0  0
 39 40  2  0  0  0
 40 41  1  0  0  0
 41 42  2  0  0  0
 42 43  1  0  0  0
 43 44  2  0  0  0
 44 45  1  0  0  0
 45 46  2  0  0  0
 46 47  1  0  0  0
 47 48  2  0  0  0
 41 49  1  0  0  0
 49 50  1  0  0  0
 50 51  1  0  0  0
 51 52  1  0  0  0
  2  3  1  0  0  0
  3  4  2  0  0  0
  4  5  1  0  0  0
  5  6  2  0  0  0
  6 10  1  0  0  0
 10 11  2  0  0  0
 11 12  1  0  0  0
 12 13  2  0  0  0
 13 16  1  0  0  0
 16 17  1  0  0  0
 17 18  1  0  0  0
 18 19  1  0  0  0
 19 20  1  0  0  0
 20 21  1  0  0  0
 21 22  1  0  0  0
 22 23  1  0  0  0
 23 24  1  0  0  0
 24 25  2  0  0  0
 24 26  1  0  0  0
 13 14  1  0  0  0
 14 15  2  0  0  0
  6  7  1  0  0  0
  7  8  1  0  0  0
  7  9  2  0  0  0
 48 39  1  0  0  0
  9  3  1  0  0  0
 52 40  1  0  0  0
 15 10  1  0  0  0
 48 43  1  0  0  0
 29 30  1  0  0  0
 37 38  1  0  0  0
M  CHG 1  24   1
M  CHG 1  26  -1
M  END
> <minimizedAffinity>
-6.96211

> <CNNscore>
0.1161777377

> <CNNaffinity>
7.4927186966

> <CNN_VS>
0.8704870939

> <CNNaffinity_variance>
0.8359826803

$$$$
[H]c1c([H])c(-c2c([H])c([H])c(C([H])(C(=O)N([H])C([H])([H])C([H])([H])C([H])([H])C([H])([H])C([H])([H])C([H])([H])N([H])c3c4c(nc5c([H])c([H])c([H])c([H])c35)C([H])([H])C([H])([H])C([H])([H])C4([H])[H])C([H])([H])[H])c([H])c2F)c([H])c([H])c1OC([H])([H])C([H])([H])C([H])([H])C([H])([H])C([H])([H])C([H])([H])O[N+](=O)[O-]


 52 56  0  0  0  0  0  0  0  0999 V2000
   49.1626   -3.5245   -8.0746 C   0  0  0  0  0  0  0  0  0  0  0  0
   50.1229   -2.9912   -7.0158 C   0  0  0  0  0  0  0  0  0  0  0  0
   51.4865   -3.3727   -7.4318 C   0  0  0  0  0  0  0  0  0  0  0  0
   52.1853   -2.5498   -8.2833 C   0  0  0  0  0  0  0  0  0  0  0  0
   53.4707   -2.8726   -8.7209 C   0  0  0  0  0  0  0  0  0  0  0  0
   54.0450   -4.0288   -8.2943 C   0  0  0  0  0  0  0  0  0  0  0  0
   53.3644   -4.8651   -7.4436 C   0  0  0  0  0  0  0  0  0  0  0  0
   53.9195   -6.0234   -7.0143 F   0  0  0  0  0  0  0  0  0  0  0  0
   52.0740   -4.5333   -7.0091 C   0  0  0  0  0  0  0  0  0  0  0  0
   55.3826   -4.3873   -8.7284 C   0  0  0  0  0  0  0  0  0  0  0  0
   55.7483   -4.3690  -10.0557 C   0  0  0  0  0  0  0  0  0  0  0  0
   57.0465   -4.7131  -10.4462 C   0  0  0  0  0  0  0  0  0  0  0  0
   58.0170   -5.0840   -9.5473 C   0  0  0  0  0  0  0  0  0  0  0  0
   57.6268   -5.0968   -8.1926 C   0  0  0  0  0  0  0  0  0  0  0  0
   56.3549   -4.7577   -7.8275 C   0  0  0  0  0  0  0  0  0  0  0  0
   59.3074   -5.4399   -9.8469 O   0  0  0  0  0  0  0  0  0  0  0  0
   60.0605   -6.4532   -9.2602 C   0  0  0  0  0  0  0  0  0  0  0  0
   61.4607   -6.4333   -9.7842 C   0  0  0  0  0  0  0  0  0  0  0  0
   62.3649   -7.2453   -8.9044 C   0  0  0  0  0  0  0  0  0  0  0  0
   63.7106   -6.6130   -8.8062 C   0  0  0  0  0  0  0  0  0  0  0  0
   63.7991   -5.5631   -7.7283 C   0  0  0  0  0  0  0  0  0  0  0  0
   65.0203   -4.7176   -7.9458 C   0  0  0  0  0  0  0  0  0  0  0  0
   65.8878   -4.8832   -6.8102 O   0  0  0  0  0  0  0  0  0  0  0  0
   65.2707   -4.9643   -5.5853 N   0  0  0  0  0  0  0  0  0  0  0  0
   65.2476   -6.0148   -4.9174 O   0  0  0  0  0  0  0  0  0  0  0  0
   64.6708   -3.8050   -5.1302 O   0  0  0  0  0  0  0  0  0  0  0  0
   49.7432   -3.3814   -5.6596 C   0  0  0  0  0  0  0  0  0  0  0  0
   48.7806   -2.7817   -5.0628 O   0  0  0  0  0  0  0  0  0  0  0  0
   50.3675   -4.4066   -4.9129 N   0  0  0  0  0  0  0  0  0  0  0  0
   51.1545   -4.9226   -5.3570 H   0  0  0  0  0  0  0  0  0  0  0  0
   49.9792   -4.7816   -3.5806 C   0  0  0  0  0  0  0  0  0  0  0  0
   51.1425   -5.2852   -2.7605 C   0  0  0  0  0  0  0  0  0  0  0  0
   51.6769   -6.5700   -3.3616 C   0  0  0  0  0  0  0  0  0  0  0  0
   52.2643   -7.3849   -2.2077 C   0  0  0  0  0  0  0  0  0  0  0  0
   51.3767   -8.5108   -1.8368 C   0  0  0  0  0  0  0  0  0  0  0  0
   51.4641   -8.9675   -0.4427 C   0  0  0  0  0  0  0  0  0  0  0  0
   50.5220   -8.5042    0.4847 N   0  0  0  0  0  0  0  0  0  0  0  0
   50.1036   -7.5218    0.2724 H   0  0  0  0  0  0  0  0  0  0  0  0
   49.9990   -9.0589    1.6543 C   0  0  0  0  0  0  0  0  0  0  0  0
   50.5047   -8.6709    2.8791 C   0  0  0  0  0  0  0  0  0  0  0  0
   49.9565   -9.1826    4.0319 C   0  0  0  0  0  0  0  0  0  0  0  0
   48.9203  -10.0648    3.9449 N   0  0  0  0  0  0  0  0  0  0  0  0
   48.3998  -10.4663    2.7758 C   0  0  0  0  0  0  0  0  0  0  0  0
   47.3525  -11.3540    2.7146 C   0  0  0  0  0  0  0  0  0  0  0  0
   46.8300  -11.7510    1.5163 C   0  0  0  0  0  0  0  0  0  0  0  0
   47.3808  -11.2373    0.3607 C   0  0  0  0  0  0  0  0  0  0  0  0
   48.4212  -10.3546    0.3955 C   0  0  0  0  0  0  0  0  0  0  0  0
   48.9447   -9.9579    1.6154 C   0  0  0  0  0  0  0  0  0  0  0  0
   50.4999   -8.7816    5.3339 C   0  0  0  0  0  0  0  0  0  0  0  0
   51.0987   -7.4196    5.3947 C   0  0  0  0  0  0  0  0  0  0  0  0
   51.1761   -6.7023    4.0759 C   0  0  0  0  0  0  0  0  0  0  0  0
   51.6205   -7.7020    3.0050 C   0  0  0  0  0  0  0  0  0  0  0  0
  1  2  1  0  0  0
  2 27  1  0  0  0
 27 28  2  0  0  0
 27 29  1  0  0  0
 29 31  1  0  0  0
 31 32  1  0  0  0
 32 33  1  0  0  0
 33 34  1  0  0  0
 34 35  1  0  0  0
 35 36  1  0  0  0
 36 37  1  0  0  0
 37 39  1  0  0  0
 39 40  2  0  0  0
 40 41  1  0  0  0
 41 42  2  0  0  0
 42 43  1  0  0  0
 43 44  2  0  0  0
 44 45  1  0  0  0
 45 46  2  0  0  0
 46 47  1  0  0  0
 47 48  2  0  0  0
 41 49  1  0  0  0
 49 50  1  0  0  0
 50 51  1  0  0  0
 51 52  1  0  0  0
  2  3  1  0  0  0
  3  4  2  0  0  0
  4  5  1  0  0  0
  5  6  2  0  0  0
  6 10  1  0  0  0
 10 11  2  0  0  0
 11 12  1  0  0  0
 12 13  2  0  0  0
 13 16  1  0  0  0
 16 17  1  0  0  0
 17 18  1  0  0  0
 18 19  1  0  0  0
 19 20  1  0  0  0
 20 21  1  0  0  0
 21 22  1  0  0  0
 22 23  1  0  0  0
 23 24  1  0  0  0
 24 25  2  0  0  0
 24 26  1  0  0  0
 13 14  1  0  0  0
 14 15  2  0  0  0
  6  7  1  0  0  0
  7  8  1  0  0  0
  7  9  2  0  0  0
 48 39  1  0  0  0
  9  3  1  0  0  0
 52 40  1  0  0  0
 15 10  1  0  0  0
 48 43  1  0  0  0
 29 30  1  0  0  0
 37 38  1  0  0  0
M  CHG 1  24   1
M  CHG 1  26  -1
M  END
> <minimizedAffinity>
-9.33546

> <CNNscore>
0.1138603687

> <CNNaffinity>
6.7773103714

> <CNN_VS>
0.7716670632

> <CNNaffinity_variance>
0.1226043850

$$$$
[H]OC(=O)[C@@]([H])(N([H])[H])C([H])([H])OP(=O)(O[H])O[C@]1([H])C([H])([H])C([H])([H])C([H])([H])O[C@]1([H])C([H])([H])OC(=O)C([H])([H])C([H])([H])c1c([H])c([H])c([H])c([H])c1OC([H])([H])c1c([H])c([H])c([H])c(Oc2c([H])c([H])c(C([H])([H])[H])c([H])c2[H])c1[H]


 49 52  0  0  0  0  0  0  0  0999 V2000
   50.9303   -5.9348   -3.7073 C   0  0  0  0  0  0  0  0  0  0  0  0
   50.0886   -5.2422   -3.1121 O   0  0  0  0  0  0  0  0  0  0  0  0
   51.9540   -6.5200   -2.9246 O   0  0  0  0  0  0  0  0  0  0  0  0
   53.1842   -5.9868   -2.7031 C   0  0  0  0  0  0  0  0  0  0  0  0
   54.3495   -6.4537   -3.5221 C   0  0  0  0  0  0  0  0  0  0  0  0
   54.9663   -5.4543   -4.2272 O   0  0  0  0  0  0  0  0  0  0  0  0
   56.3251   -5.5654   -4.3852 C   0  0  0  0  0  0  0  0  0  0  0  0
   56.8510   -6.9571   -4.5387 C   0  0  0  0  0  0  0  0  0  0  0  0
   56.2535   -7.9511   -3.6072 C   0  0  0  0  0  0  0  0  0  0  0  0
   55.3394   -7.2227   -2.6376 C   0  0  0  0  0  0  0  0  0  0  0  0
   56.0171   -6.4441   -1.7475 O   0  0  0  0  0  0  0  0  0  0  0  0
   56.3552   -7.1409   -0.2707 P   0  0  0  0  0  0  0  0  0  0  0  0
   55.3890   -6.8044    0.8164 O   0  0  0  0  0  0  0  0  0  0  0  0
   56.3771   -8.8501   -0.3805 O   0  0  0  0  0  0  0  0  0  0  0  0
   57.2718   -9.1437   -0.6110 H   0  0  0  0  0  0  0  0  0  0  0  0
   57.9428   -6.6851    0.1519 O   0  0  0  0  0  0  0  0  0  0  0  0
   57.9642   -5.7580    1.1905 C   0  0  0  0  0  0  0  0  0  0  0  0
   58.7622   -4.5700    0.6760 C   0  0  0  0  0  0  0  0  0  0  0  0
   59.6890   -5.0464   -0.3115 N   0  0  0  0  0  0  0  0  0  0  0  0
   59.2735   -5.1588   -1.2386 H   0  0  0  0  0  0  0  0  0  0  0  0
   60.6184   -4.6077   -0.2764 H   0  0  0  0  0  0  0  0  0  0  0  0
   59.3759   -3.7705    1.7402 C   0  0  0  0  0  0  0  0  0  0  0  0
   58.6797   -3.1117    2.5428 O   0  0  0  0  0  0  0  0  0  0  0  0
   60.7503   -3.7303    1.8756 O   0  0  0  0  0  0  0  0  0  0  0  0
   61.3474   -4.4758    2.1453 H   0  0  0  0  0  0  0  0  0  0  0  0
   50.9300   -6.1710   -5.1471 C   0  0  0  0  0  0  0  0  0  0  0  0
   51.8071   -5.3739   -6.0208 C   0  0  0  0  0  0  0  0  0  0  0  0
   51.8284   -3.3836   -7.5815 C   0  0  0  0  0  0  0  0  0  0  0  0
   51.1858   -2.2650   -8.0379 C   0  0  0  0  0  0  0  0  0  0  0  0
   50.0013   -1.7848   -7.4641 C   0  0  0  0  0  0  0  0  0  0  0  0
   49.4826   -2.4827   -6.4004 C   0  0  0  0  0  0  0  0  0  0  0  0
   50.1042   -3.6066   -5.9263 C   0  0  0  0  0  0  0  0  0  0  0  0
   51.2723   -4.0712   -6.5034 C   0  0  0  0  0  0  0  0  0  0  0  0
   52.9784   -3.8179   -8.1428 O   0  0  0  0  0  0  0  0  0  0  0  0
   53.7812   -3.3418   -9.1429 C   0  0  0  0  0  0  0  0  0  0  0  0
   57.1004   -4.7077  -10.3607 C   0  0  0  0  0  0  0  0  0  0  0  0
   57.7058   -5.1394   -9.1777 C   0  0  0  0  0  0  0  0  0  0  0  0
   56.9832   -4.9618   -8.0232 C   0  0  0  0  0  0  0  0  0  0  0  0
   55.7325   -4.3910   -8.0219 C   0  0  0  0  0  0  0  0  0  0  0  0
   55.1538   -3.9697   -9.2090 C   0  0  0  0  0  0  0  0  0  0  0  0
   55.8521   -4.1361  -10.3680 C   0  0  0  0  0  0  0  0  0  0  0  0
   57.8379   -4.8971  -11.5176 O   0  0  0  0  0  0  0  0  0  0  0  0
   56.1569   -3.5553  -16.6958 C   0  0  0  0  0  0  0  0  0  0  0  0
   56.6036   -3.9010  -15.3319 C   0  0  0  0  0  0  0  0  0  0  0  0
   57.7073   -3.2629  -14.7819 C   0  0  0  0  0  0  0  0  0  0  0  0
   58.1021   -3.6158  -13.4939 C   0  0  0  0  0  0  0  0  0  0  0  0
   57.4340   -4.5674  -12.7680 C   0  0  0  0  0  0  0  0  0  0  0  0
   56.3283   -5.1933  -13.3437 C   0  0  0  0  0  0  0  0  0  0  0  0
   55.9093   -4.8704  -14.6120 C   0  0  0  0  0  0  0  0  0  0  0  0
 43 44  1  0  0  0
 44 45  2  0  0  0
 45 46  1  0  0  0
 46 47  2  0  0  0
 47 42  1  0  0  0
 42 36  1  0  0  0
 36 37  2  0  0  0
 37 38  1  0  0  0
 38 39  2  0  0  0
 39 40  1  0  0  0
 40 35  1  0  0  0
 35 34  1  0  0  0
 34 28  1  0  0  0
 28 29  2  0  0  0
 29 30  1  0  0  0
 30 31  2  0  0  0
 31 32  1  0  0  0
 32 33  2  0  0  0
 33 27  1  0  0  0
 27 26  1  0  0  0
 26  1  1  0  0  0
  1  2  2  0  0  0
  1  3  1  0  0  0
  3  4  1  0  0  0
  4  5  1  0  0  0
  5  6  1  0  0  0
  6  7  1  0  0  0
  7  8  1  0  0  0
  8  9  1  0  0  0
  9 10  1  0  0  0
 10 11  1  0  0  0
 11 12  1  0  0  0
 12 13  2  0  0  0
 12 14  1  0  0  0
 12 16  1  0  0  0
 16 17  1  0  0  0
 17 18  1  0  0  0
 18 19  1  0  0  0
 18 22  1  0  0  0
 22 23  2  0  0  0
 22 24  1  0  0  0
 40 41  2  0  0  0
 47 48  1  0  0  0
 48 49  2  0  0  0
 49 44  1  0  0  0
 41 36  1  0  0  0
 33 28  1  0  0  0
 10  5  1  0  0  0
 14 15  1  0  0  0
 19 20  1  0  0  0
 19 21  1  0  0  0
 24 25  1  0  0  0
M  END
> <minimizedAffinity>
-9.28721

> <CNNscore>
0.5736545920

> <CNNaffinity>
7.1306128502

> <CNN_VS>
4.0905089378

> <CNNaffinity_variance>
0.1504629552

$$$$
[H]OC(=O)[C@@]([H])(N([H])[H])C([H])([H])OP(=O)(O[H])O[C@]1([H])C([H])([H])C([H])([H])C([H])([H])O[C@]1([H])C([H])([H])OC(=O)C([H])([H])C([H])([H])c1c([H])c([H])c([H])c([H])c1OC([H])([H])c1c([H])c([H])c([H])c(Oc2c([H])c([H])c(C([H])([H])[H])c([H])c2[H])c1[H]


 49 52  0  0  0  0  0  0  0  0999 V2000
   51.1005   -5.9131   -3.7083 C   0  0  0  0  0  0  0  0  0  0  0  0
   50.8118   -4.8778   -3.0860 O   0  0  0  0  0  0  0  0  0  0  0  0
   51.6231   -6.9927   -2.9571 O   0  0  0  0  0  0  0  0  0  0  0  0
   52.8612   -7.0431   -2.3991 C   0  0  0  0  0  0  0  0  0  0  0  0
   54.0714   -6.9269   -3.2757 C   0  0  0  0  0  0  0  0  0  0  0  0
   54.2827   -5.6643   -3.7630 O   0  0  0  0  0  0  0  0  0  0  0  0
   55.5909   -5.2793   -3.9191 C   0  0  0  0  0  0  0  0  0  0  0  0
   56.5416   -6.3572   -4.3331 C   0  0  0  0  0  0  0  0  0  0  0  0
   56.3583   -7.6511   -3.6226 C   0  0  0  0  0  0  0  0  0  0  0  0
   55.3053   -7.4699   -2.5434 C   0  0  0  0  0  0  0  0  0  0  0  0
   55.7302   -6.6913   -1.5084 O   0  0  0  0  0  0  0  0  0  0  0  0
   56.8073   -7.3995   -0.4506 P   0  0  0  0  0  0  0  0  0  0  0  0
   56.7745   -6.8510    0.9374 O   0  0  0  0  0  0  0  0  0  0  0  0
   56.5225   -9.0825   -0.3078 O   0  0  0  0  0  0  0  0  0  0  0  0
   57.0339   -9.5513   -0.9849 H   0  0  0  0  0  0  0  0  0  0  0  0
   58.3613   -7.2508   -1.1362 O   0  0  0  0  0  0  0  0  0  0  0  0
   59.0853   -8.4375   -1.0582 C   0  0  0  0  0  0  0  0  0  0  0  0
   60.3923   -8.1806   -1.7922 C   0  0  0  0  0  0  0  0  0  0  0  0
   61.3702   -7.7555   -0.8310 N   0  0  0  0  0  0  0  0  0  0  0  0
   61.8122   -8.5297   -0.3308 H   0  0  0  0  0  0  0  0  0  0  0  0
   61.9932   -7.0041   -1.1544 H   0  0  0  0  0  0  0  0  0  0  0  0
   60.2520   -7.2845   -2.9436 C   0  0  0  0  0  0  0  0  0  0  0  0
   59.7313   -6.1538   -2.8284 O   0  0  0  0  0  0  0  0  0  0  0  0
   60.6976   -7.6790   -4.1905 O   0  0  0  0  0  0  0  0  0  0  0  0
   61.6379   -7.8279   -4.4709 H   0  0  0  0  0  0  0  0  0  0  0  0
   50.9418   -6.0766   -5.1495 C   0  0  0  0  0  0  0  0  0  0  0  0
   51.7993   -5.3145   -6.0724 C   0  0  0  0  0  0  0  0  0  0  0  0
   51.8846   -3.2878   -7.5834 C   0  0  0  0  0  0  0  0  0  0  0  0
   51.2501   -2.1728   -8.0594 C   0  0  0  0  0  0  0  0  0  0  0  0
   50.0175   -1.7318   -7.5605 C   0  0  0  0  0  0  0  0  0  0  0  0
   49.4413   -2.4656   -6.5520 C   0  0  0  0  0  0  0  0  0  0  0  0
   50.0537   -3.5868   -6.0599 C   0  0  0  0  0  0  0  0  0  0  0  0
   51.2699   -4.0125   -6.5628 C   0  0  0  0  0  0  0  0  0  0  0  0
   53.0810   -3.6841   -8.0712 O   0  0  0  0  0  0  0  0  0  0  0  0
   53.9275   -3.1829   -9.0217 C   0  0  0  0  0  0  0  0  0  0  0  0
   57.1562   -4.7086  -10.2916 C   0  0  0  0  0  0  0  0  0  0  0  0
   57.7588   -5.1695   -9.1182 C   0  0  0  0  0  0  0  0  0  0  0  0
   57.0644   -4.9571   -7.9524 C   0  0  0  0  0  0  0  0  0  0  0  0
   55.8431   -4.3260   -7.9314 C   0  0  0  0  0  0  0  0  0  0  0  0
   55.2666   -3.8768   -9.1094 C   0  0  0  0  0  0  0  0  0  0  0  0
   55.9374   -4.0769  -10.2793 C   0  0  0  0  0  0  0  0  0  0  0  0
   57.8650   -4.9336  -11.4601 O   0  0  0  0  0  0  0  0  0  0  0  0
   56.1512   -3.5420  -16.6143 C   0  0  0  0  0  0  0  0  0  0  0  0
   56.5981   -3.9159  -15.2580 C   0  0  0  0  0  0  0  0  0  0  0  0
   55.8980   -4.8745  -14.5376 C   0  0  0  0  0  0  0  0  0  0  0  0
   56.3466   -5.2006  -13.2601 C   0  0  0  0  0  0  0  0  0  0  0  0
   57.4486   -4.6028  -12.7061 C   0  0  0  0  0  0  0  0  0  0  0  0
   58.1340   -3.6432  -13.4510 C   0  0  0  0  0  0  0  0  0  0  0  0
   57.7211   -3.2963  -14.7149 C   0  0  0  0  0  0  0  0  0  0  0  0
 43 44  1  0  0  0
 44 45  2  0  0  0
 45 46  1  0  0  0
 46 47  2  0  0  0
 47 42  1  0  0  0
 42 36  1  0  0  0
 36 37  2  0  0  0
 37 38  1  0  0  0
 38 39  2  0  0  0
 39 40  1  0  0  0
 40 35  1  0  0  0
 35 34  1  0  0  0
 34 28  1  0  0  0
 28 29  2  0  0  0
 29 30  1  0  0  0
 30 31  2  0  0  0
 31 32  1  0  0  0
 32 33  2  0  0  0
 33 27  1  0  0  0
 27 26  1  0  0  0
 26  1  1  0  0  0
  1  2  2  0  0  0
  1  3  1  0  0  0
  3  4  1  0  0  0
  4  5  1  0  0  0
  5  6  1  0  0  0
  6  7  1  0  0  0
  7  8  1  0  0  0
  8  9  1  0  0  0
  9 10  1  0  0  0
 10 11  1  0  0  0
 11 12  1  0  0  0
 12 13  2  0  0  0
 12 14  1  0  0  0
 12 16  1  0  0  0
 16 17  1  0  0  0
 17 18  1  0  0  0
 18 19  1  0  0  0
 18 22  1  0  0  0
 22 23  2  0  0  0
 22 24  1  0  0  0
 40 41  2  0  0  0
 47 48  1  0  0  0
 48 49  2  0  0  0
 49 44  1  0  0  0
 41 36  1  0  0  0
 33 28  1  0  0  0
 10  5  1  0  0  0
 14 15  1  0  0  0
 19 20  1  0  0  0
 19 21  1  0  0  0
 24 25  1  0  0  0
M  END
> <minimizedAffinity>
-9.13860

> <CNNscore>
0.5338233113

> <CNNaffinity>
7.1547460556

> <CNN_VS>
3.8193702698

> <CNNaffinity_variance>
0.0893830806

$$$$
[H]OC(=O)[C@@]([H])(N([H])[H])C([H])([H])OP(=O)(O[H])O[C@]1([H])C([H])([H])C([H])([H])C([H])([H])O[C@]1([H])C([H])([H])OC(=O)C([H])([H])C([H])([H])c1c([H])c([H])c([H])c([H])c1OC([H])([H])c1c([H])c([H])c([H])c(Oc2c([H])c([H])c(C([H])([H])[H])c([H])c2[H])c1[H]


 49 52  0  0  0  0  0  0  0  0999 V2000
   57.5879   -4.1456  -12.9408 C   0  0  0  0  0  0  0  0  0  0  0  0
   58.8115   -4.3530  -12.9879 O   0  0  0  0  0  0  0  0  0  0  0  0
   56.8213   -4.5507  -14.0594 O   0  0  0  0  0  0  0  0  0  0  0  0
   56.4589   -3.7562  -15.1006 C   0  0  0  0  0  0  0  0  0  0  0  0
   57.4686   -3.4131  -16.1539 C   0  0  0  0  0  0  0  0  0  0  0  0
   58.1021   -4.5031  -16.6893 O   0  0  0  0  0  0  0  0  0  0  0  0
   58.4374   -4.4250  -18.0179 C   0  0  0  0  0  0  0  0  0  0  0  0
   58.8396   -3.0707  -18.5091 C   0  0  0  0  0  0  0  0  0  0  0  0
   57.9851   -1.9556  -18.0203 C   0  0  0  0  0  0  0  0  0  0  0  0
   56.8224   -2.5396  -17.2370 C   0  0  0  0  0  0  0  0  0  0  0  0
   55.9245   -3.1963  -18.0245 O   0  0  0  0  0  0  0  0  0  0  0  0
   54.6173   -2.3039  -18.5493 P   0  0  0  0  0  0  0  0  0  0  0  0
   54.8944   -1.4127  -19.7144 O   0  0  0  0  0  0  0  0  0  0  0  0
   53.3206   -3.3193  -19.0202 O   0  0  0  0  0  0  0  0  0  0  0  0
   52.7605   -3.4998  -18.2498 H   0  0  0  0  0  0  0  0  0  0  0  0
   54.0441   -1.4129  -17.2134 O   0  0  0  0  0  0  0  0  0  0  0  0
   53.3366   -0.2788  -17.6032 C   0  0  0  0  0  0  0  0  0  0  0  0
   52.6262    0.2220  -16.3552 C   0  0  0  0  0  0  0  0  0  0  0  0
   51.3041   -0.3373  -16.3371 N   0  0  0  0  0  0  0  0  0  0  0  0
   51.2700   -1.2889  -15.9653 H   0  0  0  0  0  0  0  0  0  0  0  0
   50.5691    0.3063  -16.0165 H   0  0  0  0  0  0  0  0  0  0  0  0
   52.6645    1.6794  -16.2034 C   0  0  0  0  0  0  0  0  0  0  0  0
   51.9841    2.4281  -16.9377 O   0  0  0  0  0  0  0  0  0  0  0  0
   53.4632    2.2571  -15.2352 O   0  0  0  0  0  0  0  0  0  0  0  0
   53.3495    2.1970  -14.2511 H   0  0  0  0  0  0  0  0  0  0  0  0
   56.9049   -3.5106  -11.8186 C   0  0  0  0  0  0  0  0  0  0  0  0
   55.8230   -4.2244  -11.1202 C   0  0  0  0  0  0  0  0  0  0  0  0
   54.8922   -4.2721   -8.7687 C   0  0  0  0  0  0  0  0  0  0  0  0
   55.0956   -4.5777   -7.4505 C   0  0  0  0  0  0  0  0  0  0  0  0
   56.3360   -4.9984   -6.9532 C   0  0  0  0  0  0  0  0  0  0  0  0
   57.3760   -5.1011   -7.8451 C   0  0  0  0  0  0  0  0  0  0  0  0
   57.1984   -4.8043   -9.1697 C   0  0  0  0  0  0  0  0  0  0  0  0
   55.9678   -4.3918   -9.6481 C   0  0  0  0  0  0  0  0  0  0  0  0
   53.6895   -3.8537   -9.2210 O   0  0  0  0  0  0  0  0  0  0  0  0
   52.8847   -2.7889   -8.9210 C   0  0  0  0  0  0  0  0  0  0  0  0
   50.8059   -4.3764   -6.1781 C   0  0  0  0  0  0  0  0  0  0  0  0
   49.7687   -3.4556   -6.0089 C   0  0  0  0  0  0  0  0  0  0  0  0
   49.8012   -2.3456   -6.8172 C   0  0  0  0  0  0  0  0  0  0  0  0
   50.7960   -2.1429   -7.7442 C   0  0  0  0  0  0  0  0  0  0  0  0
   51.8150   -3.0711   -7.8921 C   0  0  0  0  0  0  0  0  0  0  0  0
   51.8034   -4.1813   -7.1010 C   0  0  0  0  0  0  0  0  0  0  0  0
   50.7581   -5.4932   -5.3602 O   0  0  0  0  0  0  0  0  0  0  0  0
   53.9385   -6.3223   -0.8174 C   0  0  0  0  0  0  0  0  0  0  0  0
   53.1067   -6.1088   -2.0181 C   0  0  0  0  0  0  0  0  0  0  0  0
   53.6605   -6.2667   -3.2815 C   0  0  0  0  0  0  0  0  0  0  0  0
   52.8472   -6.0547   -4.3919 C   0  0  0  0  0  0  0  0  0  0  0  0
   51.5299   -5.6973   -4.2657 C   0  0  0  0  0  0  0  0  0  0  0  0
   50.9981   -5.5455   -2.9851 C   0  0  0  0  0  0  0  0  0  0  0  0
   51.7703   -5.7470   -1.8665 C   0  0  0  0  0  0  0  0  0  0  0  0
 43 44  1  0  0  0
 44 45  2  0  0  0
 45 46  1  0  0  0
 46 47  2  0  0  0
 47 42  1  0  0  0
 42 36  1  0  0  0
 36 37  2  0  0  0
 37 38  1  0  0  0
 38 39  2  0  0  0
 39 40  1  0  0  0
 40 35  1  0  0  0
 35 34  1  0  0  0
 34 28  1  0  0  0
 28 29  2  0  0  0
 29 30  1  0  0  0
 30 31  2  0  0  0
 31 32  1  0  0  0
 32 33  2  0  0  0
 33 27  1  0  0  0
 27 26  1  0  0  0
 26  1  1  0  0  0
  1  2  2  0  0  0
  1  3  1  0  0  0
  3  4  1  0  0  0
  4  5  1  0  0  0
  5  6  1  0  0  0
  6  7  1  0  0  0
  7  8  1  0  0  0
  8  9  1  0  0  0
  9 10  1  0  0  0
 10 11  1  0  0  0
 11 12  1  0  0  0
 12 13  2  0  0  0
 12 14  1  0  0  0
 12 16  1  0  0  0
 16 17  1  0  0  0
 17 18  1  0  0  0
 18 19  1  0  0  0
 18 22  1  0  0  0
 22 23  2  0  0  0
 22 24  1  0  0  0
 40 41  2  0  0  0
 47 48  1  0  0  0
 48 49  2  0  0  0
 49 44  1  0  0  0
 41 36  1  0  0  0
 33 28  1  0  0  0
 10  5  1  0  0  0
 14 15  1  0  0  0
 19 20  1  0  0  0
 19 21  1  0  0  0
 24 25  1  0  0  0
M  END
> <minimizedAffinity>
-10.22674

> <CNNscore>
0.4632388651

> <CNNaffinity>
7.0141839981

> <CNN_VS>
3.2492425442

> <CNNaffinity_variance>
0.0488678589

$$$$
[H]OC(=O)[C@@]([H])(N([H])[H])C([H])([H])OP(=O)(O[H])O[C@]1([H])C([H])([H])C([H])([H])C([H])([H])O[C@]1([H])C([H])([H])OC(=O)C([H])([H])C([H])([H])c1c([H])c([H])c([H])c([H])c1OC([H])([H])c1c([H])c([H])c([H])c(Oc2c([H])c([H])c(C([H])([H])[H])c([H])c2[H])c1[H]


 49 52  0  0  0  0  0  0  0  0999 V2000
   51.0985   -5.7742   -3.9875 C   0  0  0  0  0  0  0  0  0  0  0  0
   50.1215   -5.3668   -3.3379 O   0  0  0  0  0  0  0  0  0  0  0  0
   52.3396   -5.8432   -3.3109 O   0  0  0  0  0  0  0  0  0  0  0  0
   52.7640   -6.8777   -2.5385 C   0  0  0  0  0  0  0  0  0  0  0  0
   51.7558   -7.7860   -1.9021 C   0  0  0  0  0  0  0  0  0  0  0  0
   51.9305   -9.1092   -2.2102 O   0  0  0  0  0  0  0  0  0  0  0  0
   51.6155  -10.0135   -1.2269 C   0  0  0  0  0  0  0  0  0  0  0  0
   50.4610   -9.6459   -0.3501 C   0  0  0  0  0  0  0  0  0  0  0  0
   50.4444   -8.2246    0.0885 C   0  0  0  0  0  0  0  0  0  0  0  0
   51.7210   -7.5529   -0.3861 C   0  0  0  0  0  0  0  0  0  0  0  0
   52.8310   -7.9896    0.2734 O   0  0  0  0  0  0  0  0  0  0  0  0
   53.6388   -6.8512    1.1856 P   0  0  0  0  0  0  0  0  0  0  0  0
   54.0231   -5.6132    0.4454 O   0  0  0  0  0  0  0  0  0  0  0  0
   52.6934   -6.3386    2.5189 O   0  0  0  0  0  0  0  0  0  0  0  0
   52.8658   -6.9204    3.2749 H   0  0  0  0  0  0  0  0  0  0  0  0
   55.0057   -7.6182    1.8568 O   0  0  0  0  0  0  0  0  0  0  0  0
   56.1499   -7.4180    1.0892 C   0  0  0  0  0  0  0  0  0  0  0  0
   57.1530   -6.7308    2.0027 C   0  0  0  0  0  0  0  0  0  0  0  0
   56.6042   -5.4648    2.3992 N   0  0  0  0  0  0  0  0  0  0  0  0
   55.9496   -5.5323    3.1815 H   0  0  0  0  0  0  0  0  0  0  0  0
   57.2835   -4.6939    2.4358 H   0  0  0  0  0  0  0  0  0  0  0  0
   58.5026   -6.6501    1.4366 C   0  0  0  0  0  0  0  0  0  0  0  0
   58.9419   -7.5370    0.6730 O   0  0  0  0  0  0  0  0  0  0  0  0
   59.3220   -5.5803    1.7415 O   0  0  0  0  0  0  0  0  0  0  0  0
   59.1953   -4.6333    1.4728 H   0  0  0  0  0  0  0  0  0  0  0  0
   51.0441   -6.1730   -5.3900 C   0  0  0  0  0  0  0  0  0  0  0  0
   51.8374   -5.4410   -6.3914 C   0  0  0  0  0  0  0  0  0  0  0  0
   51.9870   -3.3089   -7.7439 C   0  0  0  0  0  0  0  0  0  0  0  0
   51.3796   -2.1518   -8.1496 C   0  0  0  0  0  0  0  0  0  0  0  0
   50.1414   -1.7301   -7.6478 C   0  0  0  0  0  0  0  0  0  0  0  0
   49.5310   -2.5281   -6.7107 C   0  0  0  0  0  0  0  0  0  0  0  0
   50.1159   -3.6922   -6.2899 C   0  0  0  0  0  0  0  0  0  0  0  0
   51.3379   -4.0981   -6.7950 C   0  0  0  0  0  0  0  0  0  0  0  0
   53.1894   -3.6861   -8.2322 O   0  0  0  0  0  0  0  0  0  0  0  0
   54.1600   -3.0464   -8.9532 C   0  0  0  0  0  0  0  0  0  0  0  0
   57.2733   -4.6968  -10.3492 C   0  0  0  0  0  0  0  0  0  0  0  0
   57.8644   -5.2480   -9.2093 C   0  0  0  0  0  0  0  0  0  0  0  0
   57.2009   -5.0512   -8.0230 C   0  0  0  0  0  0  0  0  0  0  0  0
   56.0198   -4.3511   -7.9511 C   0  0  0  0  0  0  0  0  0  0  0  0
   55.4540   -3.8129   -9.0966 C   0  0  0  0  0  0  0  0  0  0  0  0
   56.0946   -3.9959  -10.2861 C   0  0  0  0  0  0  0  0  0  0  0  0
   57.9504   -4.9069  -11.5391 O   0  0  0  0  0  0  0  0  0  0  0  0
   56.0551   -3.5451  -16.6374 C   0  0  0  0  0  0  0  0  0  0  0  0
   56.5583   -3.8960  -15.2947 C   0  0  0  0  0  0  0  0  0  0  0  0
   57.6913   -3.2689  -14.7938 C   0  0  0  0  0  0  0  0  0  0  0  0
   58.1392   -3.6266  -13.5246 C   0  0  0  0  0  0  0  0  0  0  0  0
   57.4948   -4.5724  -12.7703 C   0  0  0  0  0  0  0  0  0  0  0  0
   56.3589   -5.1872  -13.2968 C   0  0  0  0  0  0  0  0  0  0  0  0
   55.8873   -4.8593  -14.5452 C   0  0  0  0  0  0  0  0  0  0  0  0
 43 44  1  0  0  0
 44 45  2  0  0  0
 45 46  1  0  0  0
 46 47  2  0  0  0
 47 42  1  0  0  0
 42 36  1  0  0  0
 36 37  2  0  0  0
 37 38  1  0  0  0
 38 39  2  0  0  0
 39 40  1  0  0  0
 40 35  1  0  0  0
 35 34  1  0  0  0
 34 28  1  0  0  0
 28 29  2  0  0  0
 29 30  1  0  0  0
 30 31  2  0  0  0
 31 32  1  0  0  0
 32 33  2  0  0  0
 33 27  1  0  0  0
 27 26  1  0  0  0
 26  1  1  0  0  0
  1  2  2  0  0  0
  1  3  1  0  0  0
  3  4  1  0  0  0
  4  5  1  0  0  0
  5  6  1  0  0  0
  6  7  1  0  0  0
  7  8  1  0  0  0
  8  9  1  0  0  0
  9 10  1  0  0  0
 10 11  1  0  0  0
 11 12  1  0  0  0
 12 13  2  0  0  0
 12 14  1  0  0  0
 12 16  1  0  0  0
 16 17  1  0  0  0
 17 18  1  0  0  0
 18 19  1  0  0  0
 18 22  1  0  0  0
 22 23  2  0  0  0
 22 24  1  0  0  0
 40 41  2  0  0  0
 47 48  1  0  0  0
 48 49  2  0  0  0
 49 44  1  0  0  0
 41 36  1  0  0  0
 33 28  1  0  0  0
 10  5  1  0  0  0
 14 15  1  0  0  0
 19 20  1  0  0  0
 19 21  1  0  0  0
 24 25  1  0  0  0
M  END
> <minimizedAffinity>
-9.08408

> <CNNscore>
0.4621860087

> <CNNaffinity>
6.7319245338

> <CNN_VS>
3.1114013195

> <CNNaffinity_variance>
0.0808872133

$$$$
[H]OC(=O)[C@@]([H])(N([H])[H])C([H])([H])OP(=O)(O[H])O[C@]1([H])C([H])([H])C([H])([H])C([H])([H])O[C@]1([H])C([H])([H])OC(=O)C([H])([H])C([H])([H])c1c([H])c([H])c([H])c([H])c1OC([H])([H])c1c([H])c([H])c([H])c(Oc2c([H])c([H])c(C([H])([H])[H])c([H])c2[H])c1[H]


 49 52  0  0  0  0  0  0  0  0999 V2000
   54.5148   -6.7141   -5.3041 C   0  0  0  0  0  0  0  0  0  0  0  0
   54.8353   -7.4974   -6.2130 O   0  0  0  0  0  0  0  0  0  0  0  0
   55.4265   -6.5618   -4.2324 O   0  0  0  0  0  0  0  0  0  0  0  0
   56.7775   -6.4716   -4.3488 C   0  0  0  0  0  0  0  0  0  0  0  0
   57.6480   -7.4549   -3.6265 C   0  0  0  0  0  0  0  0  0  0  0  0
   58.9795   -7.1339   -3.6458 O   0  0  0  0  0  0  0  0  0  0  0  0
   59.7055   -7.4657   -2.5292 C   0  0  0  0  0  0  0  0  0  0  0  0
   59.3007   -8.7309   -1.8419 C   0  0  0  0  0  0  0  0  0  0  0  0
   57.8316   -8.9171   -1.7022 C   0  0  0  0  0  0  0  0  0  0  0  0
   57.1319   -7.6632   -2.1969 C   0  0  0  0  0  0  0  0  0  0  0  0
   57.3125   -6.5915   -1.3744 O   0  0  0  0  0  0  0  0  0  0  0  0
   56.1117   -6.3179   -0.2501 P   0  0  0  0  0  0  0  0  0  0  0  0
   56.4744   -6.6751    1.1533 O   0  0  0  0  0  0  0  0  0  0  0  0
   55.6517   -4.6682   -0.2213 O   0  0  0  0  0  0  0  0  0  0  0  0
   54.9423   -4.5233   -0.8659 H   0  0  0  0  0  0  0  0  0  0  0  0
   54.7304   -7.1733   -0.7672 O   0  0  0  0  0  0  0  0  0  0  0  0
   53.5542   -6.6266   -0.2611 C   0  0  0  0  0  0  0  0  0  0  0  0
   52.8783   -5.9289   -1.4313 C   0  0  0  0  0  0  0  0  0  0  0  0
   52.5551   -4.5893   -1.0285 N   0  0  0  0  0  0  0  0  0  0  0  0
   53.3413   -3.9405   -1.1057 H   0  0  0  0  0  0  0  0  0  0  0  0
   51.6447   -4.2475   -1.3625 H   0  0  0  0  0  0  0  0  0  0  0  0
   51.7483   -6.6784   -1.9878 C   0  0  0  0  0  0  0  0  0  0  0  0
   50.7714   -6.0942   -2.5045 O   0  0  0  0  0  0  0  0  0  0  0  0
   51.7434   -8.0596   -1.9499 O   0  0  0  0  0  0  0  0  0  0  0  0
   52.3445   -8.6743   -2.4456 H   0  0  0  0  0  0  0  0  0  0  0  0
   53.2673   -5.9579   -5.2731 C   0  0  0  0  0  0  0  0  0  0  0  0
   52.4681   -5.8119   -6.5011 C   0  0  0  0  0  0  0  0  0  0  0  0
   51.9281   -3.6608   -7.7172 C   0  0  0  0  0  0  0  0  0  0  0  0
   51.0862   -2.5911   -7.8564 C   0  0  0  0  0  0  0  0  0  0  0  0
   50.0195   -2.3479   -6.9813 C   0  0  0  0  0  0  0  0  0  0  0  0
   49.8308   -3.2340   -5.9484 C   0  0  0  0  0  0  0  0  0  0  0  0
   50.6569   -4.3139   -5.7885 C   0  0  0  0  0  0  0  0  0  0  0  0
   51.7055   -4.5435   -6.6609 C   0  0  0  0  0  0  0  0  0  0  0  0
   52.9596   -3.8650   -8.5660 O   0  0  0  0  0  0  0  0  0  0  0  0
   54.0076   -3.0915   -8.9840 C   0  0  0  0  0  0  0  0  0  0  0  0
   57.2160   -4.6285  -10.2912 C   0  0  0  0  0  0  0  0  0  0  0  0
   57.7850   -5.1752   -9.1381 C   0  0  0  0  0  0  0  0  0  0  0  0
   57.0761   -5.0133   -7.9730 C   0  0  0  0  0  0  0  0  0  0  0  0
   55.8721   -4.3507   -7.9337 C   0  0  0  0  0  0  0  0  0  0  0  0
   55.3289   -3.8161   -9.0917 C   0  0  0  0  0  0  0  0  0  0  0  0
   56.0146   -3.9649  -10.2606 C   0  0  0  0  0  0  0  0  0  0  0  0
   57.9391   -4.8032  -11.4596 O   0  0  0  0  0  0  0  0  0  0  0  0
   56.1108   -3.5890  -16.6194 C   0  0  0  0  0  0  0  0  0  0  0  0
   56.5966   -3.9011  -15.2607 C   0  0  0  0  0  0  0  0  0  0  0  0
   57.7436   -3.2862  -14.7768 C   0  0  0  0  0  0  0  0  0  0  0  0
   58.1742   -3.6065  -13.4918 C   0  0  0  0  0  0  0  0  0  0  0  0
   57.4998   -4.5044  -12.7059 C   0  0  0  0  0  0  0  0  0  0  0  0
   56.3504   -5.1080  -13.2159 C   0  0  0  0  0  0  0  0  0  0  0  0
   55.8951   -4.8160  -14.4791 C   0  0  0  0  0  0  0  0  0  0  0  0
 43 44  1  0  0  0
 44 45  2  0  0  0
 45 46  1  0  0  0
 46 47  2  0  0  0
 47 42  1  0  0  0
 42 36  1  0  0  0
 36 37  2  0  0  0
 37 38  1  0  0  0
 38 39  2  0  0  0
 39 40  1  0  0  0
 40 35  1  0  0  0
 35 34  1  0  0  0
 34 28  1  0  0  0
 28 29  2  0  0  0
 29 30  1  0  0  0
 30 31  2  0  0  0
 31 32  1  0  0  0
 32 33  2  0  0  0
 33 27  1  0  0  0
 27 26  1  0  0  0
 26  1  1  0  0  0
  1  2  2  0  0  0
  1  3  1  0  0  0
  3  4  1  0  0  0
  4  5  1  0  0  0
  5  6  1  0  0  0
  6  7  1  0  0  0
  7  8  1  0  0  0
  8  9  1  0  0  0
  9 10  1  0  0  0
 10 11  1  0  0  0
 11 12  1  0  0  0
 12 13  2  0  0  0
 12 14  1  0  0  0
 12 16  1  0  0  0
 16 17  1  0  0  0
 17 18  1  0  0  0
 18 19  1  0  0  0
 18 22  1  0  0  0
 22 23  2  0  0  0
 22 24  1  0  0  0
 40 41  2  0  0  0
 47 48  1  0  0  0
 48 49  2  0  0  0
 49 44  1  0  0  0
 41 36  1  0  0  0
 33 28  1  0  0  0
 10  5  1  0  0  0
 14 15  1  0  0  0
 19 20  1  0  0  0
 19 21  1  0  0  0
 24 25  1  0  0  0
M  END
> <minimizedAffinity>
-9.59760

> <CNNscore>
0.4436467886

> <CNNaffinity>
6.8515944481

> <CNN_VS>
3.0396878719

> <CNNaffinity_variance>
0.2131393701

$$$$
[H]OC(=O)[C@@]([H])(N([H])[H])C([H])([H])OP(=O)(O[H])O[C@]1([H])C([H])([H])C([H])([H])C([H])([H])O[C@]1([H])C([H])([H])OC(=O)C([H])([H])C([H])([H])c1c([H])c([H])c([H])c([H])c1OC([H])([H])c1c([H])c([H])c([H])c(Oc2c([H])c([H])c(C([H])([H])[H])c([H])c2[H])c1[H]


 49 52  0  0  0  0  0  0  0  0999 V2000
   53.0484   -6.0828   -3.9909 C   0  0  0  0  0  0  0  0  0  0  0  0
   53.0852   -5.1538   -3.1675 O   0  0  0  0  0  0  0  0  0  0  0  0
   54.1529   -6.9674   -4.0151 O   0  0  0  0  0  0  0  0  0  0  0  0
   55.3406   -6.7346   -4.6330 C   0  0  0  0  0  0  0  0  0  0  0  0
   56.4367   -6.0360   -3.8866 C   0  0  0  0  0  0  0  0  0  0  0  0
   56.1320   -4.7482   -3.5330 O   0  0  0  0  0  0  0  0  0  0  0  0
   56.6464   -4.3026   -2.3411 C   0  0  0  0  0  0  0  0  0  0  0  0
   58.0005   -4.8254   -1.9805 C   0  0  0  0  0  0  0  0  0  0  0  0
   58.1898   -6.2794   -2.2307 C   0  0  0  0  0  0  0  0  0  0  0  0
   56.8650   -6.8743   -2.6752 C   0  0  0  0  0  0  0  0  0  0  0  0
   55.9408   -6.9261   -1.6748 O   0  0  0  0  0  0  0  0  0  0  0  0
   56.2097   -8.0626   -0.4845 P   0  0  0  0  0  0  0  0  0  0  0  0
   56.7856   -7.5197    0.7813 O   0  0  0  0  0  0  0  0  0  0  0  0
   54.7582   -8.8600   -0.0475 O   0  0  0  0  0  0  0  0  0  0  0  0
   54.6347   -9.6338   -0.6183 H   0  0  0  0  0  0  0  0  0  0  0  0
   57.2147   -9.2668   -1.1529 O   0  0  0  0  0  0  0  0  0  0  0  0
   58.2672   -9.6024   -0.3054 C   0  0  0  0  0  0  0  0  0  0  0  0
   59.3379  -10.2211   -1.1908 C   0  0  0  0  0  0  0  0  0  0  0  0
   59.0808   -9.8270   -2.5471 N   0  0  0  0  0  0  0  0  0  0  0  0
   59.4398   -8.8976   -2.7756 H   0  0  0  0  0  0  0  0  0  0  0  0
   59.2392  -10.5639   -3.2465 H   0  0  0  0  0  0  0  0  0  0  0  0
   59.4906  -11.6667   -1.0034 C   0  0  0  0  0  0  0  0  0  0  0  0
   60.0086  -12.3859   -1.8851 O   0  0  0  0  0  0  0  0  0  0  0  0
   59.0591  -12.2663    0.1642 O   0  0  0  0  0  0  0  0  0  0  0  0
   59.4384  -12.1481    1.0736 H   0  0  0  0  0  0  0  0  0  0  0  0
   51.9521   -6.3080   -4.9270 C   0  0  0  0  0  0  0  0  0  0  0  0
   52.0494   -5.8002   -6.3056 C   0  0  0  0  0  0  0  0  0  0  0  0
   51.9408   -3.6112   -7.5682 C   0  0  0  0  0  0  0  0  0  0  0  0
   51.2483   -2.4604   -7.8300 C   0  0  0  0  0  0  0  0  0  0  0  0
   50.0845   -2.1025   -7.1371 C   0  0  0  0  0  0  0  0  0  0  0  0
   49.6393   -2.9584   -6.1589 C   0  0  0  0  0  0  0  0  0  0  0  0
   50.3118   -4.1176   -5.8793 C   0  0  0  0  0  0  0  0  0  0  0  0
   51.4588   -4.4601   -6.5724 C   0  0  0  0  0  0  0  0  0  0  0  0
   53.0698   -3.9265   -8.2406 O   0  0  0  0  0  0  0  0  0  0  0  0
   54.0380   -3.1866   -8.8622 C   0  0  0  0  0  0  0  0  0  0  0  0
   57.2051   -4.7415  -10.2467 C   0  0  0  0  0  0  0  0  0  0  0  0
   57.8746   -5.1519   -9.0910 C   0  0  0  0  0  0  0  0  0  0  0  0
   57.2432   -4.8979   -7.8981 C   0  0  0  0  0  0  0  0  0  0  0  0
   56.0197   -4.2740   -7.8348 C   0  0  0  0  0  0  0  0  0  0  0  0
   55.3760   -3.8752   -8.9960 C   0  0  0  0  0  0  0  0  0  0  0  0
   55.9836   -4.1173  -10.1922 C   0  0  0  0  0  0  0  0  0  0  0  0
   57.8509   -5.0082  -11.4426 O   0  0  0  0  0  0  0  0  0  0  0  0
   56.0022   -3.5288  -16.5253 C   0  0  0  0  0  0  0  0  0  0  0  0
   56.4854   -3.9262  -15.1882 C   0  0  0  0  0  0  0  0  0  0  0  0
   55.8834   -4.9842  -14.5202 C   0  0  0  0  0  0  0  0  0  0  0  0
   56.3634   -5.3298  -13.2595 C   0  0  0  0  0  0  0  0  0  0  0  0
   57.4024   -4.6564  -12.6716 C   0  0  0  0  0  0  0  0  0  0  0  0
   57.9897   -3.5975  -13.3640 C   0  0  0  0  0  0  0  0  0  0  0  0
   57.5432   -3.2285  -14.6101 C   0  0  0  0  0  0  0  0  0  0  0  0
 43 44  1  0  0  0
 44 45  2  0  0  0
 45 46  1  0  0  0
 46 47  2  0  0  0
 47 42  1  0  0  0
 42 36  1  0  0  0
 36 37  2  0  0  0
 37 38  1  0  0  0
 38 39  2  0  0  0
 39 40  1  0  0  0
 40 35  1  0  0  0
 35 34  1  0  0  0
 34 28  1  0  0  0
 28 29  2  0  0  0
 29 30  1  0  0  0
 30 31  2  0  0  0
 31 32  1  0  0  0
 32 33  2  0  0  0
 33 27  1  0  0  0
 27 26  1  0  0  0
 26  1  1  0  0  0
  1  2  2  0  0  0
  1  3  1  0  0  0
  3  4  1  0  0  0
  4  5  1  0  0  0
  5  6  1  0  0  0
  6  7  1  0  0  0
  7  8  1  0  0  0
  8  9  1  0  0  0
  9 10  1  0  0  0
 10 11  1  0  0  0
 11 12  1  0  0  0
 12 13  2  0  0  0
 12 14  1  0  0  0
 12 16  1  0  0  0
 16 17  1  0  0  0
 17 18  1  0  0  0
 18 19  1  0  0  0
 18 22  1  0  0  0
 22 23  2  0  0  0
 22 24  1  0  0  0
 40 41  2  0  0  0
 47 48  1  0  0  0
 48 49  2  0  0  0
 49 44  1  0  0  0
 41 36  1  0  0  0
 33 28  1  0  0  0
 10  5  1  0  0  0
 14 15  1  0  0  0
 19 20  1  0  0  0
 19 21  1  0  0  0
 24 25  1  0  0  0
M  END
> <minimizedAffinity>
-8.92217

> <CNNscore>
0.4214864969

> <CNNaffinity>
6.6995558739

> <CNN_VS>
2.8237724304

> <CNNaffinity_variance>
0.1190956682

$$$$
[H]OC(=O)[C@@]([H])(N([H])[H])C([H])([H])OP(=O)(O[H])O[C@]1([H])C([H])([H])C([H])([H])C([H])([H])O[C@]1([H])C([H])([H])OC(=O)C([H])([H])C([H])([H])c1c([H])c([H])c([H])c([H])c1OC([H])([H])c1c([H])c([H])c([H])c(Oc2c([H])c([H])c(C([H])([H])[H])c([H])c2[H])c1[H]


 49 52  0  0  0  0  0  0  0  0999 V2000
   51.0661   -5.6732   -4.0740 C   0  0  0  0  0  0  0  0  0  0  0  0
   50.0421   -5.3541   -3.4479 O   0  0  0  0  0  0  0  0  0  0  0  0
   52.2980   -5.5871   -3.3827 O   0  0  0  0  0  0  0  0  0  0  0  0
   52.8083   -6.5346   -2.5528 C   0  0  0  0  0  0  0  0  0  0  0  0
   53.1736   -6.1654   -1.1469 C   0  0  0  0  0  0  0  0  0  0  0  0
   53.2162   -7.2315   -0.2879 O   0  0  0  0  0  0  0  0  0  0  0  0
   54.1589   -7.1778    0.7082 C   0  0  0  0  0  0  0  0  0  0  0  0
   54.4402   -5.8187    1.2655 C   0  0  0  0  0  0  0  0  0  0  0  0
   54.5570   -4.7429    0.2449 C   0  0  0  0  0  0  0  0  0  0  0  0
   54.4860   -5.3710   -1.1359 C   0  0  0  0  0  0  0  0  0  0  0  0
   55.5899   -6.1085   -1.4443 O   0  0  0  0  0  0  0  0  0  0  0  0
   56.5996   -5.4686   -2.6069 P   0  0  0  0  0  0  0  0  0  0  0  0
   55.9414   -5.1711   -3.9132 O   0  0  0  0  0  0  0  0  0  0  0  0
   57.3025   -3.9986   -2.0784 O   0  0  0  0  0  0  0  0  0  0  0  0
   58.1290   -4.1905   -1.6095 H   0  0  0  0  0  0  0  0  0  0  0  0
   57.8977   -6.5564   -2.8035 O   0  0  0  0  0  0  0  0  0  0  0  0
   58.1349   -7.3044   -1.6534 C   0  0  0  0  0  0  0  0  0  0  0  0
   57.8278   -8.7479   -2.0209 C   0  0  0  0  0  0  0  0  0  0  0  0
   56.4971   -8.8006   -2.5572 N   0  0  0  0  0  0  0  0  0  0  0  0
   56.4467   -8.5461   -3.5460 H   0  0  0  0  0  0  0  0  0  0  0  0
   55.9483   -9.6201   -2.2666 H   0  0  0  0  0  0  0  0  0  0  0  0
   58.0746   -9.6960   -0.9307 C   0  0  0  0  0  0  0  0  0  0  0  0
   58.5053  -10.8479   -1.1553 O   0  0  0  0  0  0  0  0  0  0  0  0
   57.8319   -9.3286    0.3789 O   0  0  0  0  0  0  0  0  0  0  0  0
   58.3226   -8.6496    0.9110 H   0  0  0  0  0  0  0  0  0  0  0  0
   51.0742   -6.1182   -5.4636 C   0  0  0  0  0  0  0  0  0  0  0  0
   51.8790   -5.3931   -6.4607 C   0  0  0  0  0  0  0  0  0  0  0  0
   52.0839   -3.2396   -7.7716 C   0  0  0  0  0  0  0  0  0  0  0  0
   51.4992   -2.0685   -8.1705 C   0  0  0  0  0  0  0  0  0  0  0  0
   50.2547   -1.6411   -7.6895 C   0  0  0  0  0  0  0  0  0  0  0  0
   49.6139   -2.4480   -6.7808 C   0  0  0  0  0  0  0  0  0  0  0  0
   50.1756   -3.6261   -6.3675 C   0  0  0  0  0  0  0  0  0  0  0  0
   51.4043   -4.0375   -6.8518 C   0  0  0  0  0  0  0  0  0  0  0  0
   53.2927   -3.6224   -8.2390 O   0  0  0  0  0  0  0  0  0  0  0  0
   54.2992   -2.9741   -8.9008 C   0  0  0  0  0  0  0  0  0  0  0  0
   57.3368   -4.6765  -10.3974 C   0  0  0  0  0  0  0  0  0  0  0  0
   57.9085   -5.3098   -9.2908 C   0  0  0  0  0  0  0  0  0  0  0  0
   57.2579   -5.1475   -8.0922 C   0  0  0  0  0  0  0  0  0  0  0  0
   56.1070   -4.4042   -7.9778 C   0  0  0  0  0  0  0  0  0  0  0  0
   55.5599   -3.7846   -9.0908 C   0  0  0  0  0  0  0  0  0  0  0  0
   56.1882   -3.9320  -10.2917 C   0  0  0  0  0  0  0  0  0  0  0  0
   58.0005   -4.8524  -11.6004 O   0  0  0  0  0  0  0  0  0  0  0  0
   55.9321   -3.6105  -16.6619 C   0  0  0  0  0  0  0  0  0  0  0  0
   56.4804   -3.9296  -15.3289 C   0  0  0  0  0  0  0  0  0  0  0  0
   57.5784   -3.2303  -14.8459 C   0  0  0  0  0  0  0  0  0  0  0  0
   58.0706   -3.5597  -13.5856 C   0  0  0  0  0  0  0  0  0  0  0  0
   57.5027   -4.5468  -12.8227 C   0  0  0  0  0  0  0  0  0  0  0  0
   56.4005   -5.2340  -13.3312 C   0  0  0  0  0  0  0  0  0  0  0  0
   55.8870   -4.9359  -14.5704 C   0  0  0  0  0  0  0  0  0  0  0  0
 43 44  1  0  0  0
 44 45  2  0  0  0
 45 46  1  0  0  0
 46 47  2  0  0  0
 47 42  1  0  0  0
 42 36  1  0  0  0
 36 37  2  0  0  0
 37 38  1  0  0  0
 38 39  2  0  0  0
 39 40  1  0  0  0
 40 35  1  0  0  0
 35 34  1  0  0  0
 34 28  1  0  0  0
 28 29  2  0  0  0
 29 30  1  0  0  0
 30 31  2  0  0  0
 31 32  1  0  0  0
 32 33  2  0  0  0
 33 27  1  0  0  0
 27 26  1  0  0  0
 26  1  1  0  0  0
  1  2  2  0  0  0
  1  3  1  0  0  0
  3  4  1  0  0  0
  4  5  1  0  0  0
  5  6  1  0  0  0
  6  7  1  0  0  0
  7  8  1  0  0  0
  8  9  1  0  0  0
  9 10  1  0  0  0
 10 11  1  0  0  0
 11 12  1  0  0  0
 12 13  2  0  0  0
 12 14  1  0  0  0
 12 16  1  0  0  0
 16 17  1  0  0  0
 17 18  1  0  0  0
 18 19  1  0  0  0
 18 22  1  0  0  0
 22 23  2  0  0  0
 22 24  1  0  0  0
 40 41  2  0  0  0
 47 48  1  0  0  0
 48 49  2  0  0  0
 49 44  1  0  0  0
 41 36  1  0  0  0
 33 28  1  0  0  0
 10  5  1  0  0  0
 14 15  1  0  0  0
 19 20  1  0  0  0
 19 21  1  0  0  0
 24 25  1  0  0  0
M  END
> <minimizedAffinity>
-9.45169

> <CNNscore>
0.3404300213

> <CNNaffinity>
6.6997580528

> <CNN_VS>
2.2807986736

> <CNNaffinity_variance>
0.1706956327

$$$$
[H]OC(=O)[C@@]([H])(N([H])[H])C([H])([H])OP(=O)(O[H])O[C@]1([H])C([H])([H])C([H])([H])C([H])([H])O[C@]1([H])C([H])([H])OC(=O)C([H])([H])C([H])([H])c1c([H])c([H])c([H])c([H])c1OC([H])([H])c1c([H])c([H])c([H])c(Oc2c([H])c([H])c(C([H])([H])[H])c([H])c2[H])c1[H]


 49 52  0  0  0  0  0  0  0  0999 V2000
   57.8111   -4.0256  -13.2218 C   0  0  0  0  0  0  0  0  0  0  0  0
   58.8497   -3.5717  -12.7142 O   0  0  0  0  0  0  0  0  0  0  0  0
   57.7309   -4.0270  -14.6348 O   0  0  0  0  0  0  0  0  0  0  0  0
   57.9260   -2.9499  -15.4401 C   0  0  0  0  0  0  0  0  0  0  0  0
   59.2260   -2.8001  -16.1708 C   0  0  0  0  0  0  0  0  0  0  0  0
   60.2343   -3.5821  -15.6725 O   0  0  0  0  0  0  0  0  0  0  0  0
   61.1360   -4.0724  -16.5838 C   0  0  0  0  0  0  0  0  0  0  0  0
   61.4529   -3.1719  -17.7351 C   0  0  0  0  0  0  0  0  0  0  0  0
   60.2719   -2.4960  -18.3360 C   0  0  0  0  0  0  0  0  0  0  0  0
   59.0145   -3.0302  -17.6728 C   0  0  0  0  0  0  0  0  0  0  0  0
   58.7419   -4.3228  -18.0086 O   0  0  0  0  0  0  0  0  0  0  0  0
   57.8751   -4.5490  -19.4151 P   0  0  0  0  0  0  0  0  0  0  0  0
   56.5908   -3.7916  -19.4881 O   0  0  0  0  0  0  0  0  0  0  0  0
   58.7861   -4.0816  -20.7883 O   0  0  0  0  0  0  0  0  0  0  0  0
   59.3017   -4.8400  -21.1026 H   0  0  0  0  0  0  0  0  0  0  0  0
   57.6134   -6.2254  -19.5836 O   0  0  0  0  0  0  0  0  0  0  0  0
   58.3186   -6.9647  -18.6377 C   0  0  0  0  0  0  0  0  0  0  0  0
   58.3478   -8.3933  -19.1585 C   0  0  0  0  0  0  0  0  0  0  0  0
   57.1826   -8.5978  -19.9718 N   0  0  0  0  0  0  0  0  0  0  0  0
   57.2893   -8.2549  -20.9289 H   0  0  0  0  0  0  0  0  0  0  0  0
   56.7374   -9.5181  -19.8621 H   0  0  0  0  0  0  0  0  0  0  0  0
   58.5303   -9.3975  -18.1065 C   0  0  0  0  0  0  0  0  0  0  0  0
   57.5589  -10.0210  -17.6266 O   0  0  0  0  0  0  0  0  0  0  0  0
   59.7939   -9.6747  -17.6213 O   0  0  0  0  0  0  0  0  0  0  0  0
   60.5412  -10.1080  -18.1099 H   0  0  0  0  0  0  0  0  0  0  0  0
   56.6813   -4.5432  -12.4573 C   0  0  0  0  0  0  0  0  0  0  0  0
   56.0972   -3.7346  -11.3742 C   0  0  0  0  0  0  0  0  0  0  0  0
   55.6175   -3.8290   -8.8925 C   0  0  0  0  0  0  0  0  0  0  0  0
   55.9423   -4.3534   -7.6710 C   0  0  0  0  0  0  0  0  0  0  0  0
   57.0609   -5.1731   -7.4719 C   0  0  0  0  0  0  0  0  0  0  0  0
   57.8491   -5.4479   -8.5631 C   0  0  0  0  0  0  0  0  0  0  0  0
   57.5447   -4.9383   -9.7968 C   0  0  0  0  0  0  0  0  0  0  0  0
   56.4361   -4.1317   -9.9801 C   0  0  0  0  0  0  0  0  0  0  0  0
   54.5413   -3.0281   -9.0556 O   0  0  0  0  0  0  0  0  0  0  0  0
   53.2457   -3.2509   -9.4340 C   0  0  0  0  0  0  0  0  0  0  0  0
   51.3956   -4.5833   -6.4063 C   0  0  0  0  0  0  0  0  0  0  0  0
   50.4054   -3.6184   -6.2040 C   0  0  0  0  0  0  0  0  0  0  0  0
   50.3914   -2.5654   -7.0857 C   0  0  0  0  0  0  0  0  0  0  0  0
   51.2982   -2.4580   -8.1136 C   0  0  0  0  0  0  0  0  0  0  0  0
   52.2720   -3.4283   -8.2925 C   0  0  0  0  0  0  0  0  0  0  0  0
   52.3052   -4.4833   -7.4297 C   0  0  0  0  0  0  0  0  0  0  0  0
   51.3952   -5.6418   -5.5130 O   0  0  0  0  0  0  0  0  0  0  0  0
   53.8635   -5.6352   -0.4784 C   0  0  0  0  0  0  0  0  0  0  0  0
   53.2206   -5.6411   -1.8073 C   0  0  0  0  0  0  0  0  0  0  0  0
   53.9940   -5.7920   -2.9504 C   0  0  0  0  0  0  0  0  0  0  0  0
   53.3542   -5.7902   -4.1874 C   0  0  0  0  0  0  0  0  0  0  0  0
   51.9960   -5.6437   -4.2987 C   0  0  0  0  0  0  0  0  0  0  0  0
   51.2420   -5.4940   -3.1348 C   0  0  0  0  0  0  0  0  0  0  0  0
   51.8387   -5.4916   -1.8970 C   0  0  0  0  0  0  0  0  0  0  0  0
 43 44  1  0  0  0
 44 45  2  0  0  0
 45 46  1  0  0  0
 46 47  2  0  0  0
 47 42  1  0  0  0
 42 36  1  0  0  0
 36 37  2  0  0  0
 37 38  1  0  0  0
 38 39  2  0  0  0
 39 40  1  0  0  0
 40 35  1  0  0  0
 35 34  1  0  0  0
 34 28  1  0  0  0
 28 29  2  0  0  0
 29 30  1  0  0  0
 30 31  2  0  0  0
 31 32  1  0  0  0
 32 33  2  0  0  0
 33 27  1  0  0  0
 27 26  1  0  0  0
 26  1  1  0  0  0
  1  2  2  0  0  0
  1  3  1  0  0  0
  3  4  1  0  0  0
  4  5  1  0  0  0
  5  6  1  0  0  0
  6  7  1  0  0  0
  7  8  1  0  0  0
  8  9  1  0  0  0
  9 10  1  0  0  0
 10 11  1  0  0  0
 11 12  1  0  0  0
 12 13  2  0  0  0
 12 14  1  0  0  0
 12 16  1  0  0  0
 16 17  1  0  0  0
 17 18  1  0  0  0
 18 19  1  0  0  0
 18 22  1  0  0  0
 22 23  2  0  0  0
 22 24  1  0  0  0
 40 41  2  0  0  0
 47 48  1  0  0  0
 48 49  2  0  0  0
 49 44  1  0  0  0
 41 36  1  0  0  0
 33 28  1  0  0  0
 10  5  1  0  0  0
 14 15  1  0  0  0
 19 20  1  0  0  0
 19 21  1  0  0  0
 24 25  1  0  0  0
M  END
> <minimizedAffinity>
-8.64182

> <CNNscore>
0.3276381195

> <CNNaffinity>
6.4239211082

> <CNN_VS>
2.1047215462

> <CNNaffinity_variance>
0.1666732281

$$$$
[H]OC(=O)[C@@]([H])(N([H])[H])C([H])([H])OP(=O)(O[H])O[C@]1([H])C([H])([H])C([H])([H])C([H])([H])O[C@]1([H])C([H])([H])OC(=O)C([H])([H])C([H])([H])c1c([H])c([H])c([H])c([H])c1OC([H])([H])c1c([H])c([H])c([H])c(Oc2c([H])c([H])c(C([H])([H])[H])c([H])c2[H])c1[H]


 49 52  0  0  0  0  0  0  0  0999 V2000
   57.1510   -4.3698  -13.1307 C   0  0  0  0  0  0  0  0  0  0  0  0
   58.3580   -4.0857  -13.0609 O   0  0  0  0  0  0  0  0  0  0  0  0
   56.5578   -4.3541  -14.4155 O   0  0  0  0  0  0  0  0  0  0  0  0
   56.8637   -3.4896  -15.4185 C   0  0  0  0  0  0  0  0  0  0  0  0
   56.5317   -3.8538  -16.8340 C   0  0  0  0  0  0  0  0  0  0  0  0
   55.8109   -2.8963  -17.4973 O   0  0  0  0  0  0  0  0  0  0  0  0
   56.0650   -2.7587  -18.8390 C   0  0  0  0  0  0  0  0  0  0  0  0
   56.3932   -4.0204  -19.5721 C   0  0  0  0  0  0  0  0  0  0  0  0
   57.3290   -4.9276  -18.8553 C   0  0  0  0  0  0  0  0  0  0  0  0
   57.8097   -4.2338  -17.5928 C   0  0  0  0  0  0  0  0  0  0  0  0
   58.6443   -3.1860  -17.8444 O   0  0  0  0  0  0  0  0  0  0  0  0
   60.2462   -3.4090  -17.4382 P   0  0  0  0  0  0  0  0  0  0  0  0
   60.4847   -3.7836  -16.0130 O   0  0  0  0  0  0  0  0  0  0  0  0
   60.9609   -4.6447  -18.3848 O   0  0  0  0  0  0  0  0  0  0  0  0
   61.3245   -4.2561  -19.1952 H   0  0  0  0  0  0  0  0  0  0  0  0
   61.0756   -1.9764  -17.8469 O   0  0  0  0  0  0  0  0  0  0  0  0
   61.1321   -1.7769  -19.2237 C   0  0  0  0  0  0  0  0  0  0  0  0
   60.6455   -0.3559  -19.4620 C   0  0  0  0  0  0  0  0  0  0  0  0
   61.5849    0.5467  -18.8588 N   0  0  0  0  0  0  0  0  0  0  0  0
   62.4008    0.7361  -19.4448 H   0  0  0  0  0  0  0  0  0  0  0  0
   61.1617    1.3567  -18.3876 H   0  0  0  0  0  0  0  0  0  0  0  0
   59.2546   -0.1362  -19.0552 C   0  0  0  0  0  0  0  0  0  0  0  0
   58.3248   -0.1347  -19.8908 O   0  0  0  0  0  0  0  0  0  0  0  0
   58.9439    0.0761  -17.7258 O   0  0  0  0  0  0  0  0  0  0  0  0
   59.0169   -0.5770  -16.9821 H   0  0  0  0  0  0  0  0  0  0  0  0
   56.3186   -4.7066  -11.9807 C   0  0  0  0  0  0  0  0  0  0  0  0
   55.9908   -3.6725  -10.9851 C   0  0  0  0  0  0  0  0  0  0  0  0
   55.3442   -3.6460   -8.5399 C   0  0  0  0  0  0  0  0  0  0  0  0
   55.5724   -4.1240   -7.2782 C   0  0  0  0  0  0  0  0  0  0  0  0
   56.6524   -4.9612   -6.9693 C   0  0  0  0  0  0  0  0  0  0  0  0
   57.5039   -5.3029   -7.9920 C   0  0  0  0  0  0  0  0  0  0  0  0
   57.2964   -4.8407   -9.2638 C   0  0  0  0  0  0  0  0  0  0  0  0
   56.2249   -4.0161   -9.5558 C   0  0  0  0  0  0  0  0  0  0  0  0
   54.3035   -2.8271   -8.8093 O   0  0  0  0  0  0  0  0  0  0  0  0
   53.0210   -3.0372   -9.2364 C   0  0  0  0  0  0  0  0  0  0  0  0
   51.0836   -4.4519   -6.3022 C   0  0  0  0  0  0  0  0  0  0  0  0
   50.0753   -3.5029   -6.1155 C   0  0  0  0  0  0  0  0  0  0  0  0
   50.0789   -2.4325   -6.9761 C   0  0  0  0  0  0  0  0  0  0  0  0
   51.0194   -2.2937   -7.9693 C   0  0  0  0  0  0  0  0  0  0  0  0
   52.0106   -3.2489   -8.1334 C   0  0  0  0  0  0  0  0  0  0  0  0
   52.0268   -4.3207   -7.2910 C   0  0  0  0  0  0  0  0  0  0  0  0
   51.0652   -5.5283   -5.4307 O   0  0  0  0  0  0  0  0  0  0  0  0
   53.9473   -5.8767   -0.6336 C   0  0  0  0  0  0  0  0  0  0  0  0
   53.1823   -5.7804   -1.8924 C   0  0  0  0  0  0  0  0  0  0  0  0
   51.8177   -5.5267   -1.8562 C   0  0  0  0  0  0  0  0  0  0  0  0
   51.1274   -5.4451   -3.0629 C   0  0  0  0  0  0  0  0  0  0  0  0
   51.7576   -5.6088   -4.2690 C   0  0  0  0  0  0  0  0  0  0  0  0
   53.1292   -5.8626   -4.2776 C   0  0  0  0  0  0  0  0  0  0  0  0
   53.8432   -5.9492   -3.1068 C   0  0  0  0  0  0  0  0  0  0  0  0
 43 44  1  0  0  0
 44 45  2  0  0  0
 45 46  1  0  0  0
 46 47  2  0  0  0
 47 42  1  0  0  0
 42 36  1  0  0  0
 36 37  2  0  0  0
 37 38  1  0  0  0
 38 39  2  0  0  0
 39 40  1  0  0  0
 40 35  1  0  0  0
 35 34  1  0  0  0
 34 28  1  0  0  0
 28 29  2  0  0  0
 29 30  1  0  0  0
 30 31  2  0  0  0
 31 32  1  0  0  0
 32 33  2  0  0  0
 33 27  1  0  0  0
 27 26  1  0  0  0
 26  1  1  0  0  0
  1  2  2  0  0  0
  1  3  1  0  0  0
  3  4  1  0  0  0
  4  5  1  0  0  0
  5  6  1  0  0  0
  6  7  1  0  0  0
  7  8  1  0  0  0
  8  9  1  0  0  0
  9 10  1  0  0  0
 10 11  1  0  0  0
 11 12  1  0  0  0
 12 13  2  0  0  0
 12 14  1  0  0  0
 12 16  1  0  0  0
 16 17  1  0  0  0
 17 18  1  0  0  0
 18 19  1  0  0  0
 18 22  1  0  0  0
 22 23  2  0  0  0
 22 24  1  0  0  0
 40 41  2  0  0  0
 47 48  1  0  0  0
 48 49  2  0  0  0
 49 44  1  0  0  0
 41 36  1  0  0  0
 33 28  1  0  0  0
 10  5  1  0  0  0
 14 15  1  0  0  0
 19 20  1  0  0  0
 19 21  1  0  0  0
 24 25  1  0  0  0
M  END
> <minimizedAffinity>
-8.99101

> <CNNscore>
0.3176765442

> <CNNaffinity>
6.5131368637

> <CNN_VS>
2.0690708160

> <CNNaffinity_variance>
0.1600325257

$$$$
[H]C([H])([H])C1([H])OC([H])(C([H])([H])[N+](C([H])([H])[H])(C([H])([H])[H])C([H])([H])[H])C([H])([H])OC1([H])[H].[I-]


 12 12  0  0  0  0  0  0  0  0999 V2000
   50.4374   -6.1244   -6.7444 C   0  0  0  0  0  0  0  0  0  0  0  0
   51.0355   -5.3982   -5.5347 C   0  0  0  0  0  0  0  0  0  0  0  0
   50.0564   -4.2883   -5.1927 C   0  0  0  0  0  0  0  0  0  0  0  0
   49.2635   -4.7970   -4.1365 O   0  0  0  0  0  0  0  0  0  0  0  0
   50.1223   -4.8135   -3.0194 C   0  0  0  0  0  0  0  0  0  0  0  0
   51.3065   -5.7428   -3.2605 C   0  0  0  0  0  0  0  0  0  0  0  0
   51.2014   -6.3049   -4.5203 O   0  0  0  0  0  0  0  0  0  0  0  0
   51.2716   -6.8002   -2.2055 C   0  0  0  0  0  0  0  0  0  0  0  0
   52.4396   -6.9273   -1.4196 N   0  0  0  0  0  0  0  0  0  0  0  0
   53.4246   -7.7550   -2.1346 C   0  0  0  0  0  0  0  0  0  0  0  0
   52.1036   -7.6373   -0.1755 C   0  0  0  0  0  0  0  0  0  0  0  0
   53.0889   -5.7156   -1.0522 C   0  0  0  0  0  0  0  0  0  0  0  0
  1  2  1  0  0  0
  2  3  1  0  0  0
  3  4  1  0  0  0
  4  5  1  0  0  0
  5  6  1  0  0  0
  6  8  1  0  0  0
  8  9  1  0  0  0
  9 10  1  0  0  0
  9 11  1  0  0  0
  9 12  1  0  0  0
  6  7  1  0  0  0
  7  2  1  0  0  0
M  CHG 1   9   1
M  END
> <minimizedAffinity>
-4.04508

> <CNNscore>
0.4498751760

> <CNNaffinity>
3.6838679314

> <CNN_VS>
1.6572806835

> <CNNaffinity_variance>
0.3186291754

$$$$
[H]C([H])([H])C1([H])OC([H])(C([H])([H])[N+](C([H])([H])[H])(C([H])([H])[H])C([H])([H])[H])C([H])([H])OC1([H])[H].[I-]


 12 12  0  0  0  0  0  0  0  0999 V2000
   61.1719   -6.5054   -9.5642 C   0  0  0  0  0  0  0  0  0  0  0  0
   61.1426   -8.0369   -9.6101 C   0  0  0  0  0  0  0  0  0  0  0  0
   62.1957   -8.4405  -10.6277 C   0  0  0  0  0  0  0  0  0  0  0  0
   63.3455   -8.7686   -9.8706 O   0  0  0  0  0  0  0  0  0  0  0  0
   63.0269   -9.9912   -9.2465 C   0  0  0  0  0  0  0  0  0  0  0  0
   61.8324   -9.8277   -8.3136 C   0  0  0  0  0  0  0  0  0  0  0  0
   61.3954   -8.5156   -8.3510 O   0  0  0  0  0  0  0  0  0  0  0  0
   62.2819  -10.1960   -6.9370 C   0  0  0  0  0  0  0  0  0  0  0  0
   61.6571  -11.3276   -6.3653 N   0  0  0  0  0  0  0  0  0  0  0  0
   60.4907  -11.7076   -7.1787 C   0  0  0  0  0  0  0  0  0  0  0  0
   61.1524  -10.9713   -5.0299 C   0  0  0  0  0  0  0  0  0  0  0  0
   62.4669  -12.4879   -6.2149 C   0  0  0  0  0  0  0  0  0  0  0  0
  1  2  1  0  0  0
  2  3  1  0  0  0
  3  4  1  0  0  0
  4  5  1  0  0  0
  5  6  1  0  0  0
  6  8  1  0  0  0
  8  9  1  0  0  0
  9 10  1  0  0  0
  9 11  1  0  0  0
  9 12  1  0  0  0
  6  7  1  0  0  0
  7  2  1  0  0  0
M  CHG 1   9   1
M  END
> <minimizedAffinity>
-2.12575

> <CNNscore>
0.3935996890

> <CNNaffinity>
2.3907618523

> <CNN_VS>
0.9410031438

> <CNNaffinity_variance>
0.1010496020

$$$$
[H]C([H])([H])C1([H])OC([H])(C([H])([H])[N+](C([H])([H])[H])(C([H])([H])[H])C([H])([H])[H])C([H])([H])OC1([H])[H].[I-]


 12 12  0  0  0  0  0  0  0  0999 V2000
   55.5649   -8.1481   -3.0215 C   0  0  0  0  0  0  0  0  0  0  0  0
   56.9582   -7.9987   -2.4012 C   0  0  0  0  0  0  0  0  0  0  0  0
   56.7436   -7.3153   -1.0617 C   0  0  0  0  0  0  0  0  0  0  0  0
   56.7402   -8.3567   -0.1033 O   0  0  0  0  0  0  0  0  0  0  0  0
   58.0822   -8.7798   -0.0287 C   0  0  0  0  0  0  0  0  0  0  0  0
   58.5534   -9.3253   -1.3720 C   0  0  0  0  0  0  0  0  0  0  0  0
   57.5213   -9.2433   -2.2897 O   0  0  0  0  0  0  0  0  0  0  0  0
   58.9625  -10.7471   -1.1626 C   0  0  0  0  0  0  0  0  0  0  0  0
   60.2525  -11.0931   -1.6252 N   0  0  0  0  0  0  0  0  0  0  0  0
   60.1512  -12.2252   -2.5604 C   0  0  0  0  0  0  0  0  0  0  0  0
   61.0629  -11.5487   -0.4848 C   0  0  0  0  0  0  0  0  0  0  0  0
   60.9857  -10.0646   -2.2802 C   0  0  0  0  0  0  0  0  0  0  0  0
  1  2  1  0  0  0
  2  3  1  0  0  0
  3  4  1  0  0  0
  4  5  1  0  0  0
  5  6  1  0  0  0
  6  8  1  0  0  0
  8  9  1  0  0  0
  9 10  1  0  0  0
  9 11  1  0  0  0
  9 12  1  0  0  0
  6  7  1  0  0  0
  7  2  1  0  0  0
M  CHG 1   9   1
M  END
> <minimizedAffinity>
-2.19216

> <CNNscore>
0.3917169273

> <CNNaffinity>
2.6020722389

> <CNN_VS>
1.0192757845

> <CNNaffinity_variance>
0.0939676389

$$$$
[H]C([H])([H])C1([H])OC([H])(C([H])([H])[N+](C([H])([H])[H])(C([H])([H])[H])C([H])([H])[H])C([H])([H])OC1([H])[H].[I-]


 12 12  0  0  0  0  0  0  0  0999 V2000
   59.9017   -5.9755   -9.2068 C   0  0  0  0  0  0  0  0  0  0  0  0
   61.0008   -7.0034   -8.9176 C   0  0  0  0  0  0  0  0  0  0  0  0
   62.1804   -6.6036   -9.7872 C   0  0  0  0  0  0  0  0  0  0  0  0
   63.0413   -5.8668   -8.9393 O   0  0  0  0  0  0  0  0  0  0  0  0
   63.6007   -6.8278   -8.0737 C   0  0  0  0  0  0  0  0  0  0  0  0
   62.5170   -7.5005   -7.2388 C   0  0  0  0  0  0  0  0  0  0  0  0
   61.2828   -6.9744   -7.5766 O   0  0  0  0  0  0  0  0  0  0  0  0
   62.8277   -7.2380   -5.8011 C   0  0  0  0  0  0  0  0  0  0  0  0
   62.5175   -8.2831   -4.9014 N   0  0  0  0  0  0  0  0  0  0  0  0
   63.4899   -8.2842   -3.7964 C   0  0  0  0  0  0  0  0  0  0  0  0
   62.6575   -9.5712   -5.5987 C   0  0  0  0  0  0  0  0  0  0  0  0
   61.2174   -8.2547   -4.3239 C   0  0  0  0  0  0  0  0  0  0  0  0
  1  2  1  0  0  0
  2  3  1  0  0  0
  3  4  1  0  0  0
  4  5  1  0  0  0
  5  6  1  0  0  0
  6  8  1  0  0  0
  8  9  1  0  0  0
  9 10  1  0  0  0
  9 11  1  0  0  0
  9 12  1  0  0  0
  6  7  1  0  0  0
  7  2  1  0  0  0
M  CHG 1   9   1
M  END
> <minimizedAffinity>
-2.41647

> <CNNscore>
0.3852730691

> <CNNaffinity>
2.3828868866

> <CNN_VS>
0.9180621505

> <CNNaffinity_variance>
0.1842991263

$$$$
[H]C([H])([H])C1([H])OC([H])(C([H])([H])[N+](C([H])([H])[H])(C([H])([H])[H])C([H])([H])[H])C([H])([H])OC1([H])[H].[I-]


 12 12  0  0  0  0  0  0  0  0999 V2000
   59.7790   -6.1085   -9.4519 C   0  0  0  0  0  0  0  0  0  0  0  0
   61.2283   -6.5887   -9.5834 C   0  0  0  0  0  0  0  0  0  0  0  0
   61.2021   -8.0745   -9.2682 C   0  0  0  0  0  0  0  0  0  0  0  0
   61.1717   -8.7260  -10.5242 O   0  0  0  0  0  0  0  0  0  0  0  0
   62.4635   -8.5404  -11.0556 C   0  0  0  0  0  0  0  0  0  0  0  0
   62.7581   -7.0584  -11.2576 C   0  0  0  0  0  0  0  0  0  0  0  0
   61.6655   -6.3125  -10.8527 O   0  0  0  0  0  0  0  0  0  0  0  0
   63.0326   -6.8474  -12.7111 C   0  0  0  0  0  0  0  0  0  0  0  0
   64.2419   -6.1849  -13.0216 N   0  0  0  0  0  0  0  0  0  0  0  0
   63.9443   -4.8554  -13.5785 C   0  0  0  0  0  0  0  0  0  0  0  0
   64.9464   -6.9418  -14.0683 C   0  0  0  0  0  0  0  0  0  0  0  0
   65.1555   -6.0008  -11.9463 C   0  0  0  0  0  0  0  0  0  0  0  0
  1  2  1  0  0  0
  2  3  1  0  0  0
  3  4  1  0  0  0
  4  5  1  0  0  0
  5  6  1  0  0  0
  6  8  1  0  0  0
  8  9  1  0  0  0
  9 10  1  0  0  0
  9 11  1  0  0  0
  9 12  1  0  0  0
  6  7  1  0  0  0
  7  2  1  0  0  0
M  CHG 1   9   1
M  END
> <minimizedAffinity>
-2.48328

> <CNNscore>
0.3838123083

> <CNNaffinity>
2.3625655174

> <CNN_VS>
0.9067817330

> <CNNaffinity_variance>
0.0872631520

$$$$
[H]C([H])([H])C1([H])OC([H])(C([H])([H])[N+](C([H])([H])[H])(C([H])([H])[H])C([H])([H])[H])C([H])([H])OC1([H])[H].[I-]


 12 12  0  0  0  0  0  0  0  0999 V2000
   60.5644   -9.2596   -1.7835 C   0  0  0  0  0  0  0  0  0  0  0  0
   59.0605   -9.3105   -2.0732 C   0  0  0  0  0  0  0  0  0  0  0  0
   58.4352  -10.0289   -0.8898 C   0  0  0  0  0  0  0  0  0  0  0  0
   57.9485   -9.0056   -0.0418 O   0  0  0  0  0  0  0  0  0  0  0  0
   56.8291   -8.4816   -0.7184 C   0  0  0  0  0  0  0  0  0  0  0  0
   57.2386   -7.8808   -2.0582 C   0  0  0  0  0  0  0  0  0  0  0  0
   58.6033   -8.0281   -2.2309 O   0  0  0  0  0  0  0  0  0  0  0  0
   56.8615   -6.4351   -2.0381 C   0  0  0  0  0  0  0  0  0  0  0  0
   55.7840   -6.0661   -2.8752 N   0  0  0  0  0  0  0  0  0  0  0  0
   55.6996   -7.0022   -4.0080 C   0  0  0  0  0  0  0  0  0  0  0  0
   56.0508   -4.7330   -3.4379 C   0  0  0  0  0  0  0  0  0  0  0  0
   54.4987   -6.0181   -2.2665 C   0  0  0  0  0  0  0  0  0  0  0  0
  1  2  1  0  0  0
  2  3  1  0  0  0
  3  4  1  0  0  0
  4  5  1  0  0  0
  5  6  1  0  0  0
  6  8  1  0  0  0
  8  9  1  0  0  0
  9 10  1  0  0  0
  9 11  1  0  0  0
  9 12  1  0  0  0
  6  7  1  0  0  0
  7  2  1  0  0  0
M  CHG 1   9   1
M  END
> <minimizedAffinity>
-2.31496

> <CNNscore>
0.3603957593

> <CNNaffinity>
2.8588886261

> <CNN_VS>
1.0303313732

> <CNNaffinity_variance>
0.2529726028

$$$$
[H]C([H])([H])C1([H])OC([H])(C([H])([H])[N+](C([H])([H])[H])(C([H])([H])[H])C([H])([H])[H])C([H])([H])OC1([H])[H].[I-]


 12 12  0  0  0  0  0  0  0  0999 V2000
   59.3716   -6.1856   -9.4072 C   0  0  0  0  0  0  0  0  0  0  0  0
   60.9038   -6.1733   -9.4310 C   0  0  0  0  0  0  0  0  0  0  0  0
   61.3430   -6.9320   -8.1904 C   0  0  0  0  0  0  0  0  0  0  0  0
   61.6300   -8.2452   -8.6333 O   0  0  0  0  0  0  0  0  0  0  0  0
   62.8270   -8.1226   -9.3667 C   0  0  0  0  0  0  0  0  0  0  0  0
   62.6324   -7.2098  -10.5720 C   0  0  0  0  0  0  0  0  0  0  0  0
   61.3263   -6.7543  -10.5982 O   0  0  0  0  0  0  0  0  0  0  0  0
   62.9380   -8.0091  -11.7968 C   0  0  0  0  0  0  0  0  0  0  0  0
   63.9896   -7.5219  -12.6058 N   0  0  0  0  0  0  0  0  0  0  0  0
   65.2051   -8.3153  -12.3612 C   0  0  0  0  0  0  0  0  0  0  0  0
   64.2934   -6.1372  -12.2119 C   0  0  0  0  0  0  0  0  0  0  0  0
   63.7580   -7.5204  -14.0098 C   0  0  0  0  0  0  0  0  0  0  0  0
  1  2  1  0  0  0
  2  3  1  0  0  0
  3  4  1  0  0  0
  4  5  1  0  0  0
  5  6  1  0  0  0
  6  8  1  0  0  0
  8  9  1  0  0  0
  9 10  1  0  0  0
  9 11  1  0  0  0
  9 12  1  0  0  0
  6  7  1  0  0  0
  7  2  1  0  0  0
M  CHG 1   9   1
M  END
> <minimizedAffinity>
-2.15627

> <CNNscore>
0.3451663852

> <CNNaffinity>
2.3630251884

> <CNN_VS>
0.8156368732

> <CNNaffinity_variance>
0.0911712646

$$$$
[H]C([H])([H])C1([H])OC([H])(C([H])([H])[N+](C([H])([H])[H])(C([H])([H])[H])C([H])([H])[H])C([H])([H])OC1([H])[H].[I-]


 12 12  0  0  0  0  0  0  0  0999 V2000
   59.3234   -7.7827   -2.3291 C   0  0  0  0  0  0  0  0  0  0  0  0
   57.9535   -7.9577   -1.6651 C   0  0  0  0  0  0  0  0  0  0  0  0
   58.1644   -7.6473   -0.1931 C   0  0  0  0  0  0  0  0  0  0  0  0
   57.7553   -6.3024   -0.0290 O   0  0  0  0  0  0  0  0  0  0  0  0
   56.3514   -6.3382   -0.1444 C   0  0  0  0  0  0  0  0  0  0  0  0
   55.9340   -6.8326   -1.5247 C   0  0  0  0  0  0  0  0  0  0  0  0
   57.0628   -7.1126   -2.2741 O   0  0  0  0  0  0  0  0  0  0  0  0
   55.1286   -5.7501   -2.1667 C   0  0  0  0  0  0  0  0  0  0  0  0
   53.7519   -6.0221   -2.3355 N   0  0  0  0  0  0  0  0  0  0  0  0
   53.4784   -7.4197   -1.9637 C   0  0  0  0  0  0  0  0  0  0  0  0
   53.4079   -5.8807   -3.7591 C   0  0  0  0  0  0  0  0  0  0  0  0
   52.8511   -5.2021   -1.6000 C   0  0  0  0  0  0  0  0  0  0  0  0
  1  2  1  0  0  0
  2  3  1  0  0  0
  3  4  1  0  0  0
  4  5  1  0  0  0
  5  6  1  0  0  0
  6  8  1  0  0  0
  8  9  1  0  0  0
  9 10  1  0  0  0
  9 11  1  0  0  0
  9 12  1  0  0  0
  6  7  1  0  0  0
  7  2  1  0  0  0
M  CHG 1   9   1
M  END
> <minimizedAffinity>
-2.46119

> <CNNscore>
0.2953988016

> <CNNaffinity>
2.9923083782

> <CNN_VS>
0.8839243054

> <CNNaffinity_variance>
0.4356812537

$$$$
[H]C([H])([H])C1([H])OC([H])(C([H])([H])[N+](C([H])([H])[H])(C([H])([H])[H])C([H])([H])[H])C([H])([H])OC1([H])[H].[I-]


 12 12  0  0  0  0  0  0  0  0999 V2000
   51.0311   -2.6261   -7.9361 C   0  0  0  0  0  0  0  0  0  0  0  0
   51.1696   -3.4788   -6.6704 C   0  0  0  0  0  0  0  0  0  0  0  0
   49.8699   -4.2561   -6.5509 C   0  0  0  0  0  0  0  0  0  0  0  0
   50.1423   -5.5327   -7.0978 O   0  0  0  0  0  0  0  0  0  0  0  0
   50.9720   -6.1602   -6.1474 C   0  0  0  0  0  0  0  0  0  0  0  0
   52.2768   -5.3907   -5.9757 C   0  0  0  0  0  0  0  0  0  0  0  0
   52.2708   -4.2836   -6.8053 O   0  0  0  0  0  0  0  0  0  0  0  0
   53.3952   -6.3141   -6.3349 C   0  0  0  0  0  0  0  0  0  0  0  0
   54.5602   -6.2114   -5.5410 N   0  0  0  0  0  0  0  0  0  0  0  0
   55.1903   -7.5361   -5.4203 C   0  0  0  0  0  0  0  0  0  0  0  0
   54.1779   -5.7916   -4.1836 C   0  0  0  0  0  0  0  0  0  0  0  0
   55.5581   -5.3057   -5.9978 C   0  0  0  0  0  0  0  0  0  0  0  0
  1  2  1  0  0  0
  2  3  1  0  0  0
  3  4  1  0  0  0
  4  5  1  0  0  0
  5  6  1  0  0  0
  6  8  1  0  0  0
  8  9  1  0  0  0
  9 10  1  0  0  0
  9 11  1  0  0  0
  9 12  1  0  0  0
  6  7  1  0  0  0
  7  2  1  0  0  0
M  CHG 1   9   1
M  END
> <minimizedAffinity>
-4.43372

> <CNNscore>
0.2733210623

> <CNNaffinity>
3.7033123970

> <CNN_VS>
1.0121933222

> <CNNaffinity_variance>
0.1663939059

$$$$
[H]Sc1nnc(N([H])C(=O)N([H])N=C([H])c2c([H])c([H])c([H])c(OC([H])([H])[H])c2[H])s1


 23 24  0  0  0  0  0  0  0  0999 V2000
   53.4301   -3.0883   -9.7843 N   0  0  0  0  0  0  0  0  0  0  0  0
   52.6984   -3.3602   -8.6070 C   0  0  0  0  0  0  0  0  0  0  0  0
   53.1575   -4.1645   -7.7586 O   0  0  0  0  0  0  0  0  0  0  0  0
   51.4550   -2.7487   -8.3543 N   0  0  0  0  0  0  0  0  0  0  0  0
   53.0296   -2.4149  -10.4783 H   0  0  0  0  0  0  0  0  0  0  0  0
   51.0567   -2.0841   -9.0363 H   0  0  0  0  0  0  0  0  0  0  0  0
   50.7144   -3.0239   -7.1626 C   0  0  0  0  0  0  0  0  0  0  0  0
   49.7602   -2.3094   -6.5726 N   0  0  0  0  0  0  0  0  0  0  0  0
   49.2192   -2.7272   -5.5102 N   0  0  0  0  0  0  0  0  0  0  0  0
   49.6048   -3.8819   -4.9825 C   0  0  0  0  0  0  0  0  0  0  0  0
   48.9442   -4.6085   -3.4940 S   0  0  0  0  0  0  0  0  0  0  0  0
   50.8057   -4.3663   -6.0922 S   0  0  0  0  0  0  0  0  0  0  0  0
   47.5271   -4.5021   -3.4469 H   0  0  0  0  0  0  0  0  0  0  0  0
   55.6258   -3.7689   -9.2625 C   0  0  0  0  0  0  0  0  0  0  0  0
   54.6501   -3.6512  -10.0927 N   0  0  0  0  0  0  0  0  0  0  0  0
   58.9372   -5.5117   -9.0961 C   0  0  0  0  0  0  0  0  0  0  0  0
   59.2732   -5.5148  -10.4332 C   0  0  0  0  0  0  0  0  0  0  0  0
   58.4194   -4.9521  -11.3588 C   0  0  0  0  0  0  0  0  0  0  0  0
   57.2233   -4.3784  -10.9843 C   0  0  0  0  0  0  0  0  0  0  0  0
   56.8888   -4.3748   -9.6571 C   0  0  0  0  0  0  0  0  0  0  0  0
   57.7418   -4.9364   -8.7370 C   0  0  0  0  0  0  0  0  0  0  0  0
   61.0317   -6.5792   -8.4910 C   0  0  0  0  0  0  0  0  0  0  0  0
   59.7672   -6.0648   -8.1475 O   0  0  0  0  0  0  0  0  0  0  0  0
 22 23  1  0  0  0
 23 16  1  0  0  0
 16 17  2  0  0  0
 17 18  1  0  0  0
 18 19  2  0  0  0
 19 20  1  0  0  0
 20 14  1  0  0  0
 14 15  2  0  0  0
 15  1  1  0  0  0
  1  2  1  0  0  0
  2  3  2  0  0  0
  2  4  1  0  0  0
  4  7  1  0  0  0
  7  8  2  0  0  0
  8  9  1  0  0  0
  9 10  2  0  0  0
 10 11  1  0  0  0
 10 12  1  0  0  0
 20 21  2  0  0  0
 21 16  1  0  0  0
 12  7  1  0  0  0
  1  5  1  0  0  0
  4  6  1  0  0  0
 11 13  1  0  0  0
M  END
> <minimizedAffinity>
-7.55962

> <CNNscore>
0.9376200438

> <CNNaffinity>
5.8812074661

> <CNN_VS>
5.5143380165

> <CNNaffinity_variance>
0.0606882796

$$$$
[H]Sc1nnc(N([H])C(=O)N([H])N=C([H])c2c([H])c([H])c([H])c(OC([H])([H])[H])c2[H])s1


 23 24  0  0  0  0  0  0  0  0999 V2000
   53.7179   -3.1551   -9.6532 N   0  0  0  0  0  0  0  0  0  0  0  0
   54.9578   -3.7971   -9.4394 C   0  0  0  0  0  0  0  0  0  0  0  0
   55.2173   -4.2948   -8.3158 O   0  0  0  0  0  0  0  0  0  0  0  0
   55.9223   -3.8961  -10.4610 N   0  0  0  0  0  0  0  0  0  0  0  0
   53.5217   -2.7471  -10.5969 H   0  0  0  0  0  0  0  0  0  0  0  0
   55.7326   -3.4950  -11.3929 H   0  0  0  0  0  0  0  0  0  0  0  0
   57.1774   -4.5460  -10.2445 C   0  0  0  0  0  0  0  0  0  0  0  0
   58.1189   -4.8862  -11.1203 N   0  0  0  0  0  0  0  0  0  0  0  0
   59.1727   -5.4619  -10.7280 N   0  0  0  0  0  0  0  0  0  0  0  0
   59.3396   -5.7274   -9.4388 C   0  0  0  0  0  0  0  0  0  0  0  0
   60.7631   -6.5309   -8.7260 S   0  0  0  0  0  0  0  0  0  0  0  0
   57.8924   -5.1061   -8.7847 S   0  0  0  0  0  0  0  0  0  0  0  0
   61.9743   -6.0329   -9.2800 H   0  0  0  0  0  0  0  0  0  0  0  0
   52.3012   -3.9868   -7.9628 C   0  0  0  0  0  0  0  0  0  0  0  0
   52.7320   -3.0235   -8.6988 N   0  0  0  0  0  0  0  0  0  0  0  0
   50.1267   -4.4162   -4.9432 C   0  0  0  0  0  0  0  0  0  0  0  0
   49.2667   -3.3522   -5.1146 C   0  0  0  0  0  0  0  0  0  0  0  0
   49.4106   -2.5195   -6.2046 C   0  0  0  0  0  0  0  0  0  0  0  0
   50.4013   -2.7199   -7.1420 C   0  0  0  0  0  0  0  0  0  0  0  0
   51.2555   -3.7759   -6.9727 C   0  0  0  0  0  0  0  0  0  0  0  0
   51.1096   -4.6039   -5.8853 C   0  0  0  0  0  0  0  0  0  0  0  0
   51.1159   -5.9873   -3.3793 C   0  0  0  0  0  0  0  0  0  0  0  0
   50.0099   -5.2656   -3.8664 O   0  0  0  0  0  0  0  0  0  0  0  0
 22 23  1  0  0  0
 23 16  1  0  0  0
 16 17  2  0  0  0
 17 18  1  0  0  0
 18 19  2  0  0  0
 19 20  1  0  0  0
 20 14  1  0  0  0
 14 15  2  0  0  0
 15  1  1  0  0  0
  1  2  1  0  0  0
  2  3  2  0  0  0
  2  4  1  0  0  0
  4  7  1  0  0  0
  7  8  2  0  0  0
  8  9  1  0  0  0
  9 10  2  0  0  0
 10 11  1  0  0  0
 10 12  1  0  0  0
 20 21  2  0  0  0
 21 16  1  0  0  0
 12  7  1  0  0  0
  1  5  1  0  0  0
  4  6  1  0  0  0
 11 13  1  0  0  0
M  END
> <minimizedAffinity>
-8.85009

> <CNNscore>
0.8921915293

> <CNNaffinity>
6.1095466614

> <CNN_VS>
5.4508857727

> <CNNaffinity_variance>
0.0243503265

$$$$
[H]Sc1nnc(N([H])C(=O)N([H])N=C([H])c2c([H])c([H])c([H])c(OC([H])([H])[H])c2[H])s1


 23 24  0  0  0  0  0  0  0  0999 V2000
   53.4045   -2.9046   -9.6129 N   0  0  0  0  0  0  0  0  0  0  0  0
   52.6794   -3.1921   -8.4353 C   0  0  0  0  0  0  0  0  0  0  0  0
   53.2296   -3.8301   -7.5037 O   0  0  0  0  0  0  0  0  0  0  0  0
   51.3425   -2.7796   -8.2737 N   0  0  0  0  0  0  0  0  0  0  0  0
   52.9272   -2.3718  -10.3770 H   0  0  0  0  0  0  0  0  0  0  0  0
   50.8683   -2.2540   -9.0249 H   0  0  0  0  0  0  0  0  0  0  0  0
   50.6086   -3.0706   -7.0815 C   0  0  0  0  0  0  0  0  0  0  0  0
   49.6663   -2.3584   -6.4701 N   0  0  0  0  0  0  0  0  0  0  0  0
   49.1296   -2.7914   -5.4116 N   0  0  0  0  0  0  0  0  0  0  0  0
   49.5078   -3.9599   -4.9095 C   0  0  0  0  0  0  0  0  0  0  0  0
   48.8518   -4.7088   -3.4301 S   0  0  0  0  0  0  0  0  0  0  0  0
   50.6949   -4.4344   -6.0381 S   0  0  0  0  0  0  0  0  0  0  0  0
   47.4362   -4.5894   -3.3694 H   0  0  0  0  0  0  0  0  0  0  0  0
   55.1325   -3.8458  -10.9107 C   0  0  0  0  0  0  0  0  0  0  0  0
   54.7126   -3.2782   -9.8352 N   0  0  0  0  0  0  0  0  0  0  0  0
   58.5802   -4.1527  -12.3426 C   0  0  0  0  0  0  0  0  0  0  0  0
   59.1756   -4.9257  -11.3685 C   0  0  0  0  0  0  0  0  0  0  0  0
   58.4469   -5.3301  -10.2696 C   0  0  0  0  0  0  0  0  0  0  0  0
   57.1227   -4.9811  -10.1117 C   0  0  0  0  0  0  0  0  0  0  0  0
   56.5306   -4.2138  -11.0782 C   0  0  0  0  0  0  0  0  0  0  0  0
   57.2596   -3.8123  -12.1721 C   0  0  0  0  0  0  0  0  0  0  0  0
   60.6704   -3.9242  -13.5555 C   0  0  0  0  0  0  0  0  0  0  0  0
   59.2797   -3.7329  -13.4511 O   0  0  0  0  0  0  0  0  0  0  0  0
 22 23  1  0  0  0
 23 16  1  0  0  0
 16 17  2  0  0  0
 17 18  1  0  0  0
 18 19  2  0  0  0
 19 20  1  0  0  0
 20 14  1  0  0  0
 14 15  2  0  0  0
 15  1  1  0  0  0
  1  2  1  0  0  0
  2  3  2  0  0  0
  2  4  1  0  0  0
  4  7  1  0  0  0
  7  8  2  0  0  0
  8  9  1  0  0  0
  9 10  2  0  0  0
 10 11  1  0  0  0
 10 12  1  0  0  0
 20 21  2  0  0  0
 21 16  1  0  0  0
 12  7  1  0  0  0
  1  5  1  0  0  0
  4  6  1  0  0  0
 11 13  1  0  0  0
M  END
> <minimizedAffinity>
-6.50918

> <CNNscore>
0.8550342321

> <CNNaffinity>
5.7408971786

> <CNN_VS>
4.9086637497

> <CNNaffinity_variance>
0.0567846224

$$$$
[H]Sc1nnc(N([H])C(=O)N([H])N=C([H])c2c([H])c([H])c([H])c(OC([H])([H])[H])c2[H])s1


 23 24  0  0  0  0  0  0  0  0999 V2000
   54.8191   -4.4070   -9.4732 N   0  0  0  0  0  0  0  0  0  0  0  0
   53.6055   -3.8693   -8.9900 C   0  0  0  0  0  0  0  0  0  0  0  0
   52.9569   -3.0587   -9.6968 O   0  0  0  0  0  0  0  0  0  0  0  0
   53.0964   -4.2196   -7.7244 N   0  0  0  0  0  0  0  0  0  0  0  0
   55.3439   -5.0809   -8.8682 H   0  0  0  0  0  0  0  0  0  0  0  0
   53.6111   -4.8837   -7.1248 H   0  0  0  0  0  0  0  0  0  0  0  0
   51.8679   -3.6753   -7.2353 C   0  0  0  0  0  0  0  0  0  0  0  0
   51.1969   -2.5996   -7.6374 N   0  0  0  0  0  0  0  0  0  0  0  0
   50.1147   -2.2778   -7.0708 N   0  0  0  0  0  0  0  0  0  0  0  0
   49.6473   -3.0156   -6.0719 C   0  0  0  0  0  0  0  0  0  0  0  0
   48.1413   -2.6985   -5.1711 S   0  0  0  0  0  0  0  0  0  0  0  0
   50.8457   -4.2242   -5.9666 S   0  0  0  0  0  0  0  0  0  0  0  0
   47.0795   -2.3334   -6.0434 H   0  0  0  0  0  0  0  0  0  0  0  0
   56.5681   -4.4240  -11.0533 C   0  0  0  0  0  0  0  0  0  0  0  0
   55.3725   -4.1070  -10.6995 N   0  0  0  0  0  0  0  0  0  0  0  0
   56.7541   -3.6764  -14.7189 C   0  0  0  0  0  0  0  0  0  0  0  0
   58.1015   -3.4104  -14.8406 C   0  0  0  0  0  0  0  0  0  0  0  0
   58.9195   -3.4792  -13.7323 C   0  0  0  0  0  0  0  0  0  0  0  0
   58.4259   -3.8103  -12.4886 C   0  0  0  0  0  0  0  0  0  0  0  0
   57.0885   -4.0745  -12.3668 C   0  0  0  0  0  0  0  0  0  0  0  0
   56.2758   -4.0051  -13.4731 C   0  0  0  0  0  0  0  0  0  0  0  0
   56.2881   -2.9554  -16.9895 C   0  0  0  0  0  0  0  0  0  0  0  0
   55.9111   -3.6165  -15.8053 O   0  0  0  0  0  0  0  0  0  0  0  0
 22 23  1  0  0  0
 23 16  1  0  0  0
 16 17  2  0  0  0
 17 18  1  0  0  0
 18 19  2  0  0  0
 19 20  1  0  0  0
 20 14  1  0  0  0
 14 15  2  0  0  0
 15  1  1  0  0  0
  1  2  1  0  0  0
  2  3  2  0  0  0
  2  4  1  0  0  0
  4  7  1  0  0  0
  7  8  2  0  0  0
  8  9  1  0  0  0
  9 10  2  0  0  0
 10 11  1  0  0  0
 10 12  1  0  0  0
 20 21  2  0  0  0
 21 16  1  0  0  0
 12  7  1  0  0  0
  1  5  1  0  0  0
  4  6  1  0  0  0
 11 13  1  0  0  0
M  END
> <minimizedAffinity>
-6.44639

> <CNNscore>
0.7840886116

> <CNNaffinity>
5.6842541695

> <CNN_VS>
4.4569587708

> <CNNaffinity_variance>
0.0370192006

$$$$
[H]Sc1nnc(N([H])C(=O)N([H])N=C([H])c2c([H])c([H])c([H])c(OC([H])([H])[H])c2[H])s1


 23 24  0  0  0  0  0  0  0  0999 V2000
   55.0397   -4.4535   -9.6114 N   0  0  0  0  0  0  0  0  0  0  0  0
   53.8286   -3.9161   -9.1219 C   0  0  0  0  0  0  0  0  0  0  0  0
   53.1873   -3.0887   -9.8160 O   0  0  0  0  0  0  0  0  0  0  0  0
   53.3137   -4.2851   -7.8640 N   0  0  0  0  0  0  0  0  0  0  0  0
   55.5584   -5.1414   -9.0171 H   0  0  0  0  0  0  0  0  0  0  0  0
   53.8223   -4.9632   -7.2749 H   0  0  0  0  0  0  0  0  0  0  0  0
   52.0877   -3.7411   -7.3685 C   0  0  0  0  0  0  0  0  0  0  0  0
   51.4053   -2.6755   -7.7784 N   0  0  0  0  0  0  0  0  0  0  0  0
   50.3278   -2.3520   -7.2038 N   0  0  0  0  0  0  0  0  0  0  0  0
   49.8767   -3.0778   -6.1888 C   0  0  0  0  0  0  0  0  0  0  0  0
   48.3794   -2.7567   -5.2750 S   0  0  0  0  0  0  0  0  0  0  0  0
   51.0838   -4.2775   -6.0799 S   0  0  0  0  0  0  0  0  0  0  0  0
   47.3052   -2.4109   -6.1401 H   0  0  0  0  0  0  0  0  0  0  0  0
   56.8177   -4.3841  -11.1574 C   0  0  0  0  0  0  0  0  0  0  0  0
   55.5984   -4.1357  -10.8309 N   0  0  0  0  0  0  0  0  0  0  0  0
   59.1939   -3.4761  -13.9070 C   0  0  0  0  0  0  0  0  0  0  0  0
   58.3062   -3.3315  -14.9520 C   0  0  0  0  0  0  0  0  0  0  0  0
   56.9577   -3.5315  -14.7424 C   0  0  0  0  0  0  0  0  0  0  0  0
   56.4618   -3.8763  -13.5034 C   0  0  0  0  0  0  0  0  0  0  0  0
   57.3422   -4.0200  -12.4653 C   0  0  0  0  0  0  0  0  0  0  0  0
   58.6855   -3.8201  -12.6773 C   0  0  0  0  0  0  0  0  0  0  0  0
   61.1091   -3.1801  -15.3687 C   0  0  0  0  0  0  0  0  0  0  0  0
   60.5453   -3.2836  -14.0831 O   0  0  0  0  0  0  0  0  0  0  0  0
 22 23  1  0  0  0
 23 16  1  0  0  0
 16 17  2  0  0  0
 17 18  1  0  0  0
 18 19  2  0  0  0
 19 20  1  0  0  0
 20 14  1  0  0  0
 14 15  2  0  0  0
 15  1  1  0  0  0
  1  2  1  0  0  0
  2  3  2  0  0  0
  2  4  1  0  0  0
  4  7  1  0  0  0
  7  8  2  0  0  0
  8  9  1  0  0  0
  9 10  2  0  0  0
 10 11  1  0  0  0
 10 12  1  0  0  0
 20 21  2  0  0  0
 21 16  1  0  0  0
 12  7  1  0  0  0
  1  5  1  0  0  0
  4  6  1  0  0  0
 11 13  1  0  0  0
M  END
> <minimizedAffinity>
-6.43318

> <CNNscore>
0.7639037371

> <CNNaffinity>
5.6190404892

> <CNN_VS>
4.2924060822

> <CNNaffinity_variance>
0.0953599066

$$$$
[H]Sc1nnc(N([H])C(=O)N([H])N=C([H])c2c([H])c([H])c([H])c(OC([H])([H])[H])c2[H])s1


 23 24  0  0  0  0  0  0  0  0999 V2000
   53.1171   -3.3967   -8.8189 N   0  0  0  0  0  0  0  0  0  0  0  0
   54.4112   -3.9600   -8.8752 C   0  0  0  0  0  0  0  0  0  0  0  0
   54.8862   -4.5348   -7.8645 O   0  0  0  0  0  0  0  0  0  0  0  0
   55.1931   -3.8948  -10.0449 N   0  0  0  0  0  0  0  0  0  0  0  0
   52.7401   -2.9223   -9.6724 H   0  0  0  0  0  0  0  0  0  0  0  0
   54.8250   -3.4278  -10.8885 H   0  0  0  0  0  0  0  0  0  0  0  0
   56.5032   -4.4650  -10.1018 C   0  0  0  0  0  0  0  0  0  0  0  0
   57.2841   -4.6935  -11.1539 N   0  0  0  0  0  0  0  0  0  0  0  0
   58.4249   -5.2128  -10.9971 N   0  0  0  0  0  0  0  0  0  0  0  0
   58.8441   -5.5308   -9.7790 C   0  0  0  0  0  0  0  0  0  0  0  0
   60.4207   -6.2673   -9.3892 S   0  0  0  0  0  0  0  0  0  0  0  0
   57.5092   -5.0467   -8.8347 S   0  0  0  0  0  0  0  0  0  0  0  0
   61.4758   -5.6580  -10.1223 H   0  0  0  0  0  0  0  0  0  0  0  0
   51.8158   -4.4988   -7.1916 C   0  0  0  0  0  0  0  0  0  0  0  0
   52.3008   -3.4252   -7.7084 N   0  0  0  0  0  0  0  0  0  0  0  0
   49.1956   -3.4210   -4.7414 C   0  0  0  0  0  0  0  0  0  0  0  0
   49.3513   -4.3970   -3.7800 C   0  0  0  0  0  0  0  0  0  0  0  0
   50.3017   -5.3824   -3.9472 C   0  0  0  0  0  0  0  0  0  0  0  0
   51.1128   -5.4234   -5.0610 C   0  0  0  0  0  0  0  0  0  0  0  0
   50.9590   -4.4549   -6.0159 C   0  0  0  0  0  0  0  0  0  0  0  0
   50.0109   -3.4742   -5.8465 C   0  0  0  0  0  0  0  0  0  0  0  0
   46.9187   -2.7173   -4.2798 C   0  0  0  0  0  0  0  0  0  0  0  0
   48.2566   -2.4240   -4.6045 O   0  0  0  0  0  0  0  0  0  0  0  0
 22 23  1  0  0  0
 23 16  1  0  0  0
 16 17  2  0  0  0
 17 18  1  0  0  0
 18 19  2  0  0  0
 19 20  1  0  0  0
 20 14  1  0  0  0
 14 15  2  0  0  0
 15  1  1  0  0  0
  1  2  1  0  0  0
  2  3  2  0  0  0
  2  4  1  0  0  0
  4  7  1  0  0  0
  7  8  2  0  0  0
  8  9  1  0  0  0
  9 10  2  0  0  0
 10 11  1  0  0  0
 10 12  1  0  0  0
 20 21  2  0  0  0
 21 16  1  0  0  0
 12  7  1  0  0  0
  1  5  1  0  0  0
  4  6  1  0  0  0
 11 13  1  0  0  0
M  END
> <minimizedAffinity>
-8.06614

> <CNNscore>
0.6348277330

> <CNNaffinity>
5.9060606956

> <CNN_VS>
3.7493312359

> <CNNaffinity_variance>
0.0983643085

$$$$
[H]Sc1nnc(N([H])C(=O)N([H])N=C([H])c2c([H])c([H])c([H])c(OC([H])([H])[H])c2[H])s1


 23 24  0  0  0  0  0  0  0  0999 V2000
   57.4716   -4.7409  -10.0081 N   0  0  0  0  0  0  0  0  0  0  0  0
   56.2573   -4.4470   -9.3492 C   0  0  0  0  0  0  0  0  0  0  0  0
   56.0829   -4.8251   -8.1641 O   0  0  0  0  0  0  0  0  0  0  0  0
   55.2248   -3.7345   -9.9896 N   0  0  0  0  0  0  0  0  0  0  0  0
   57.5965   -4.4166  -10.9955 H   0  0  0  0  0  0  0  0  0  0  0  0
   55.3442   -3.4131  -10.9632 H   0  0  0  0  0  0  0  0  0  0  0  0
   53.9956   -3.4370   -9.3225 C   0  0  0  0  0  0  0  0  0  0  0  0
   53.1902   -2.3870   -9.4563 N   0  0  0  0  0  0  0  0  0  0  0  0
   52.1344   -2.3048   -8.7675 N   0  0  0  0  0  0  0  0  0  0  0  0
   51.8294   -3.2691   -7.9086 C   0  0  0  0  0  0  0  0  0  0  0  0
   50.3828   -3.3038   -6.8664 S   0  0  0  0  0  0  0  0  0  0  0  0
   53.1452   -4.3319   -8.1258 S   0  0  0  0  0  0  0  0  0  0  0  0
   49.2191   -2.9002   -7.5769 H   0  0  0  0  0  0  0  0  0  0  0  0
   59.3106   -6.2132  -10.0897 C   0  0  0  0  0  0  0  0  0  0  0  0
   58.5203   -5.4326   -9.4407 N   0  0  0  0  0  0  0  0  0  0  0  0
   61.7074   -8.9053   -9.0707 C   0  0  0  0  0  0  0  0  0  0  0  0
   62.4677   -8.2132   -8.1519 C   0  0  0  0  0  0  0  0  0  0  0  0
   62.1867   -6.8900   -7.8832 C   0  0  0  0  0  0  0  0  0  0  0  0
   61.1550   -6.2273   -8.5130 C   0  0  0  0  0  0  0  0  0  0  0  0
   60.3997   -6.9135   -9.4252 C   0  0  0  0  0  0  0  0  0  0  0  0
   60.6822   -8.2322   -9.6909 C   0  0  0  0  0  0  0  0  0  0  0  0
   62.3323  -10.6333  -10.6569 C   0  0  0  0  0  0  0  0  0  0  0  0
   61.9618  -10.2264   -9.3612 O   0  0  0  0  0  0  0  0  0  0  0  0
 22 23  1  0  0  0
 23 16  1  0  0  0
 16 17  2  0  0  0
 17 18  1  0  0  0
 18 19  2  0  0  0
 19 20  1  0  0  0
 20 14  1  0  0  0
 14 15  2  0  0  0
 15  1  1  0  0  0
  1  2  1  0  0  0
  2  3  2  0  0  0
  2  4  1  0  0  0
  4  7  1  0  0  0
  7  8  2  0  0  0
  8  9  1  0  0  0
  9 10  2  0  0  0
 10 11  1  0  0  0
 10 12  1  0  0  0
 20 21  2  0  0  0
 21 16  1  0  0  0
 12  7  1  0  0  0
  1  5  1  0  0  0
  4  6  1  0  0  0
 11 13  1  0  0  0
M  END
> <minimizedAffinity>
-6.07547

> <CNNscore>
0.5578801632

> <CNNaffinity>
5.0544400215

> <CNN_VS>
2.8197717667

> <CNNaffinity_variance>
0.0521540716

$$$$
[H]Sc1nnc(N([H])C(=O)N([H])N=C([H])c2c([H])c([H])c([H])c(OC([H])([H])[H])c2[H])s1


 23 24  0  0  0  0  0  0  0  0999 V2000
   56.8983   -3.9086  -10.5384 N   0  0  0  0  0  0  0  0  0  0  0  0
   55.6615   -4.0936   -9.8817 C   0  0  0  0  0  0  0  0  0  0  0  0
   54.5885   -3.9100  -10.5083 O   0  0  0  0  0  0  0  0  0  0  0  0
   55.5959   -4.4821   -8.5295 N   0  0  0  0  0  0  0  0  0  0  0  0
   57.7806   -4.0669   -9.9980 H   0  0  0  0  0  0  0  0  0  0  0  0
   56.4636   -4.6391   -7.9931 H   0  0  0  0  0  0  0  0  0  0  0  0
   54.3438   -4.6694   -7.8647 C   0  0  0  0  0  0  0  0  0  0  0  0
   53.2703   -3.8845   -7.8405 N   0  0  0  0  0  0  0  0  0  0  0  0
   52.2463   -4.2293   -7.1861 N   0  0  0  0  0  0  0  0  0  0  0  0
   52.2429   -5.3777   -6.5215 C   0  0  0  0  0  0  0  0  0  0  0  0
   50.8833   -6.0066   -5.5540 S   0  0  0  0  0  0  0  0  0  0  0  0
   53.8034   -5.9674   -6.8752 S   0  0  0  0  0  0  0  0  0  0  0  0
   49.6415   -5.8293   -6.2235 H   0  0  0  0  0  0  0  0  0  0  0  0
   56.8987   -4.3265  -12.8583 C   0  0  0  0  0  0  0  0  0  0  0  0
   57.0332   -3.5299  -11.8570 N   0  0  0  0  0  0  0  0  0  0  0  0
   58.3922   -2.8557  -15.9626 C   0  0  0  0  0  0  0  0  0  0  0  0
   57.3226   -2.9787  -16.8239 C   0  0  0  0  0  0  0  0  0  0  0  0
   56.1416   -3.5354  -16.3796 C   0  0  0  0  0  0  0  0  0  0  0  0
   55.9940   -3.9793  -15.0829 C   0  0  0  0  0  0  0  0  0  0  0  0
   57.0553   -3.8576  -14.2271 C   0  0  0  0  0  0  0  0  0  0  0  0
   58.2310   -3.3024  -14.6729 C   0  0  0  0  0  0  0  0  0  0  0  0
   60.1101   -2.5689  -17.6535 C   0  0  0  0  0  0  0  0  0  0  0  0
   59.5842   -2.3046  -16.3748 O   0  0  0  0  0  0  0  0  0  0  0  0
 22 23  1  0  0  0
 23 16  1  0  0  0
 16 17  2  0  0  0
 17 18  1  0  0  0
 18 19  2  0  0  0
 19 20  1  0  0  0
 20 14  1  0  0  0
 14 15  2  0  0  0
 15  1  1  0  0  0
  1  2  1  0  0  0
  2  3  2  0  0  0
  2  4  1  0  0  0
  4  7  1  0  0  0
  7  8  2  0  0  0
  8  9  1  0  0  0
  9 10  2  0  0  0
 10 11  1  0  0  0
 10 12  1  0  0  0
 20 21  2  0  0  0
 21 16  1  0  0  0
 12  7  1  0  0  0
  1  5  1  0  0  0
  4  6  1  0  0  0
 11 13  1  0  0  0
M  END
> <minimizedAffinity>
-6.18771

> <CNNscore>
0.4871476591

> <CNNaffinity>
5.1225609779

> <CNN_VS>
2.4954435825

> <CNNaffinity_variance>
0.0559347086

$$$$
[H]Sc1nnc(N([H])C(=O)N([H])N=C([H])c2c([H])c([H])c([H])c(OC([H])([H])[H])c2[H])s1


 23 24  0  0  0  0  0  0  0  0999 V2000
   56.2903   -3.2657   -9.8670 N   0  0  0  0  0  0  0  0  0  0  0  0
   56.5144   -3.6958  -11.1937 C   0  0  0  0  0  0  0  0  0  0  0  0
   56.1177   -4.8307  -11.5572 O   0  0  0  0  0  0  0  0  0  0  0  0
   57.1774   -2.8799  -12.1309 N   0  0  0  0  0  0  0  0  0  0  0  0
   56.6289   -2.3164   -9.5847 H   0  0  0  0  0  0  0  0  0  0  0  0
   57.5129   -1.9432  -11.8563 H   0  0  0  0  0  0  0  0  0  0  0  0
   57.4042   -3.3154  -13.4739 C   0  0  0  0  0  0  0  0  0  0  0  0
   58.5469   -3.6020  -14.0913 N   0  0  0  0  0  0  0  0  0  0  0  0
   58.5402   -3.9756  -15.2980 N   0  0  0  0  0  0  0  0  0  0  0  0
   57.3896   -4.0820  -15.9502 C   0  0  0  0  0  0  0  0  0  0  0  0
   57.2091   -4.5938  -17.6488 S   0  0  0  0  0  0  0  0  0  0  0  0
   56.2815   -3.6149  -14.7410 S   0  0  0  0  0  0  0  0  0  0  0  0
   58.0421   -5.7064  -17.9490 H   0  0  0  0  0  0  0  0  0  0  0  0
   56.2528   -4.6934   -7.9918 C   0  0  0  0  0  0  0  0  0  0  0  0
   55.6497   -4.0127   -8.9017 N   0  0  0  0  0  0  0  0  0  0  0  0
   53.4287   -6.1238   -5.9896 C   0  0  0  0  0  0  0  0  0  0  0  0
   54.1353   -6.9252   -5.1181 C   0  0  0  0  0  0  0  0  0  0  0  0
   55.5109   -6.9841   -5.1987 C   0  0  0  0  0  0  0  0  0  0  0  0
   56.2122   -6.2568   -6.1365 C   0  0  0  0  0  0  0  0  0  0  0  0
   55.5116   -5.4610   -7.0020 C   0  0  0  0  0  0  0  0  0  0  0  0
   54.1408   -5.4044   -6.9193 C   0  0  0  0  0  0  0  0  0  0  0  0
   51.2590   -6.3503   -7.0543 C   0  0  0  0  0  0  0  0  0  0  0  0
   52.0557   -6.0428   -5.9353 O   0  0  0  0  0  0  0  0  0  0  0  0
 22 23  1  0  0  0
 23 16  1  0  0  0
 16 17  2  0  0  0
 17 18  1  0  0  0
 18 19  2  0  0  0
 19 20  1  0  0  0
 20 14  1  0  0  0
 14 15  2  0  0  0
 15  1  1  0  0  0
  1  2  1  0  0  0
  2  3  2  0  0  0
  2  4  1  0  0  0
  4  7  1  0  0  0
  7  8  2  0  0  0
  8  9  1  0  0  0
  9 10  2  0  0  0
 10 11  1  0  0  0
 10 12  1  0  0  0
 20 21  2  0  0  0
 21 16  1  0  0  0
 12  7  1  0  0  0
  1  5  1  0  0  0
  4  6  1  0  0  0
 11 13  1  0  0  0
M  END
> <minimizedAffinity>
-5.37968

> <CNNscore>
0.4314165115

> <CNNaffinity>
5.2937755585

> <CNN_VS>
2.2838222980

> <CNNaffinity_variance>
0.1924651861

$$$$
[H]c1c([H])c(-c2c([H])c(SC([H])([H])[H])n([H])c2-c2c([H])c([H])c(S(=O)(=O)C([H])([H])[H])c([H])c2[H])c([H])c([H])c1F


 25 27  0  0  0  0  0  0  0  0999 V2000
   53.2851   -3.3275   -8.3617 C   0  0  0  0  0  0  0  0  0  0  0  0
   53.3654   -4.0938   -7.1893 C   0  0  0  0  0  0  0  0  0  0  0  0
   54.5641   -4.7630   -7.1910 C   0  0  0  0  0  0  0  0  0  0  0  0
   55.2074   -4.4111   -8.3475 C   0  0  0  0  0  0  0  0  0  0  0  0
   54.4244   -3.5496   -9.0358 N   0  0  0  0  0  0  0  0  0  0  0  0
   54.6410   -3.1082   -9.9492 H   0  0  0  0  0  0  0  0  0  0  0  0
   55.0552   -5.6670   -6.1667 C   0  0  0  0  0  0  0  0  0  0  0  0
   55.8180   -5.1941   -5.1186 C   0  0  0  0  0  0  0  0  0  0  0  0
   56.2983   -6.0039   -4.1434 C   0  0  0  0  0  0  0  0  0  0  0  0
   56.0313   -7.3495   -4.1741 C   0  0  0  0  0  0  0  0  0  0  0  0
   56.5295   -8.1113   -3.1858 F   0  0  0  0  0  0  0  0  0  0  0  0
   55.2665   -7.8549   -5.2158 C   0  0  0  0  0  0  0  0  0  0  0  0
   54.7866   -7.0238   -6.1965 C   0  0  0  0  0  0  0  0  0  0  0  0
   56.5124   -4.9028   -8.7444 C   0  0  0  0  0  0  0  0  0  0  0  0
   56.8464   -4.9561  -10.1019 C   0  0  0  0  0  0  0  0  0  0  0  0
   58.1050   -5.4307  -10.4020 C   0  0  0  0  0  0  0  0  0  0  0  0
   59.0176   -5.8407   -9.4621 C   0  0  0  0  0  0  0  0  0  0  0  0
   58.6780   -5.7843   -8.1257 C   0  0  0  0  0  0  0  0  0  0  0  0
   57.4415   -5.3199   -7.7959 C   0  0  0  0  0  0  0  0  0  0  0  0
   60.6044   -6.4314   -9.8785 S   0  0  0  0  0  0  0  0  0  0  0  0
   61.7217   -6.0257   -8.5500 C   0  0  0  0  0  0  0  0  0  0  0  0
   61.0811   -5.7124  -11.1238 O   0  0  0  0  0  0  0  0  0  0  0  0
   60.5828   -7.8850  -10.1904 O   0  0  0  0  0  0  0  0  0  0  0  0
   50.6351   -2.1275   -7.6891 C   0  0  0  0  0  0  0  0  0  0  0  0
   51.9675   -2.2648   -8.8997 S   0  0  0  0  0  0  0  0  0  0  0  0
 24 25  1  0  0  0
 25  1  1  0  0  0
  1  2  2  0  0  0
  2  3  1  0  0  0
  3  7  1  0  0  0
  7  8  2  0  0  0
  8  9  1  0  0  0
  9 10  2  0  0  0
 10 11  1  0  0  0
 10 12  1  0  0  0
 12 13  2  0  0  0
  3  4  2  0  0  0
  4 14  1  0  0  0
 14 15  2  0  0  0
 15 16  1  0  0  0
 16 17  2  0  0  0
 17 20  1  0  0  0
 20 21  1  0  0  0
 20 22  2  0  0  0
 20 23  2  0  0  0
 17 18  1  0  0  0
 18 19  2  0  0  0
  4  5  1  0  0  0
  5  1  1  0  0  0
 13  7  1  0  0  0
 19 14  1  0  0  0
  5  6  1  0  0  0
M  END
> <minimizedAffinity>
-6.75547

> <CNNscore>
0.6873748302

> <CNNaffinity>
6.3572187424

> <CNN_VS>
4.3697919846

> <CNNaffinity_variance>
0.2045887411

$$$$
[H]c1c([H])c(-c2c([H])c(SC([H])([H])[H])n([H])c2-c2c([H])c([H])c(S(=O)(=O)C([H])([H])[H])c([H])c2[H])c([H])c([H])c1F


 25 27  0  0  0  0  0  0  0  0999 V2000
   63.9308   -9.3678  -10.6537 C   0  0  0  0  0  0  0  0  0  0  0  0
   64.4852   -8.4165   -9.7842 C   0  0  0  0  0  0  0  0  0  0  0  0
   64.0976   -8.7232   -8.5034 C   0  0  0  0  0  0  0  0  0  0  0  0
   63.3176   -9.8455   -8.5884 C   0  0  0  0  0  0  0  0  0  0  0  0
   63.2297  -10.2166   -9.8859 N   0  0  0  0  0  0  0  0  0  0  0  0
   62.7079  -11.0291  -10.2651 H   0  0  0  0  0  0  0  0  0  0  0  0
   64.4467   -7.9999   -7.2940 C   0  0  0  0  0  0  0  0  0  0  0  0
   65.4001   -8.4960   -6.4286 C   0  0  0  0  0  0  0  0  0  0  0  0
   65.7534   -7.8541   -5.2881 C   0  0  0  0  0  0  0  0  0  0  0  0
   65.1568   -6.6638   -4.9564 C   0  0  0  0  0  0  0  0  0  0  0  0
   65.5398   -6.0658   -3.8158 F   0  0  0  0  0  0  0  0  0  0  0  0
   64.1942   -6.1395   -5.8072 C   0  0  0  0  0  0  0  0  0  0  0  0
   63.8459   -6.7997   -6.9585 C   0  0  0  0  0  0  0  0  0  0  0  0
   62.6967  -10.5027   -7.4549 C   0  0  0  0  0  0  0  0  0  0  0  0
   63.2078  -11.7228   -6.9994 C   0  0  0  0  0  0  0  0  0  0  0  0
   62.5684  -12.2852   -5.9158 C   0  0  0  0  0  0  0  0  0  0  0  0
   61.4881  -11.7231   -5.2822 C   0  0  0  0  0  0  0  0  0  0  0  0
   60.9916  -10.5194   -5.7397 C   0  0  0  0  0  0  0  0  0  0  0  0
   61.6012   -9.9375   -6.8088 C   0  0  0  0  0  0  0  0  0  0  0  0
   60.7067  -12.4613   -3.9094 S   0  0  0  0  0  0  0  0  0  0  0  0
   60.2191  -11.1716   -2.7794 C   0  0  0  0  0  0  0  0  0  0  0  0
   61.7069  -13.3496   -3.1985 O   0  0  0  0  0  0  0  0  0  0  0  0
   59.5694  -13.3240   -4.3255 O   0  0  0  0  0  0  0  0  0  0  0  0
   63.9616   -7.8691  -13.2360 C   0  0  0  0  0  0  0  0  0  0  0  0
   64.0868   -9.4747  -12.4198 S   0  0  0  0  0  0  0  0  0  0  0  0
 24 25  1  0  0  0
 25  1  1  0  0  0
  1  2  2  0  0  0
  2  3  1  0  0  0
  3  7  1  0  0  0
  7  8  2  0  0  0
  8  9  1  0  0  0
  9 10  2  0  0  0
 10 11  1  0  0  0
 10 12  1  0  0  0
 12 13  2  0  0  0
  3  4  2  0  0  0
  4 14  1  0  0  0
 14 15  2  0  0  0
 15 16  1  0  0  0
 16 17  2  0  0  0
 17 20  1  0  0  0
 20 21  1  0  0  0
 20 22  2  0  0  0
 20 23  2  0  0  0
 17 18  1  0  0  0
 18 19  2  0  0  0
  4  5  1  0  0  0
  5  1  1  0  0  0
 13  7  1  0  0  0
 19 14  1  0  0  0
  5  6  1  0  0  0
M  END
> <minimizedAffinity>
-2.66252

> <CNNscore>
0.5949548483

> <CNNaffinity>
4.8933544159

> <CNN_VS>
2.9113249779

> <CNNaffinity_variance>
0.3765804172

$$$$
[H]c1c([H])c(-c2c([H])c(SC([H])([H])[H])n([H])c2-c2c([H])c([H])c(S(=O)(=O)C([H])([H])[H])c([H])c2[H])c([H])c([H])c1F


 25 27  0  0  0  0  0  0  0  0999 V2000
   54.4024   -3.9668   -9.1470 C   0  0  0  0  0  0  0  0  0  0  0  0
   55.5571   -4.5745   -8.6315 C   0  0  0  0  0  0  0  0  0  0  0  0
   56.5039   -4.6168   -9.6247 C   0  0  0  0  0  0  0  0  0  0  0  0
   55.9366   -4.0435  -10.7314 C   0  0  0  0  0  0  0  0  0  0  0  0
   54.6765   -3.6601  -10.4247 N   0  0  0  0  0  0  0  0  0  0  0  0
   53.9975   -3.1963  -11.0573 H   0  0  0  0  0  0  0  0  0  0  0  0
   57.8455   -5.1621   -9.5225 C   0  0  0  0  0  0  0  0  0  0  0  0
   58.5262   -5.5706  -10.6511 C   0  0  0  0  0  0  0  0  0  0  0  0
   59.7783   -6.0874  -10.5997 C   0  0  0  0  0  0  0  0  0  0  0  0
   60.4176   -6.2210   -9.3930 C   0  0  0  0  0  0  0  0  0  0  0  0
   61.6573   -6.7390   -9.3930 F   0  0  0  0  0  0  0  0  0  0  0  0
   59.7585   -5.8188   -8.2400 C   0  0  0  0  0  0  0  0  0  0  0  0
   58.4911   -5.2973   -8.3064 C   0  0  0  0  0  0  0  0  0  0  0  0
   56.6018   -3.8914  -12.0106 C   0  0  0  0  0  0  0  0  0  0  0  0
   55.9641   -4.3285  -13.1766 C   0  0  0  0  0  0  0  0  0  0  0  0
   56.6560   -4.1471  -14.3546 C   0  0  0  0  0  0  0  0  0  0  0  0
   57.9018   -3.5762  -14.4359 C   0  0  0  0  0  0  0  0  0  0  0  0
   58.5222   -3.1487  -13.2796 C   0  0  0  0  0  0  0  0  0  0  0  0
   57.8649   -3.3135  -12.0989 C   0  0  0  0  0  0  0  0  0  0  0  0
   58.7461   -3.3581  -15.9457 S   0  0  0  0  0  0  0  0  0  0  0  0
   57.7939   -4.1316  -17.2391 C   0  0  0  0  0  0  0  0  0  0  0  0
   60.0825   -4.0669  -15.8638 O   0  0  0  0  0  0  0  0  0  0  0  0
   59.0248   -1.9226  -16.2145 O   0  0  0  0  0  0  0  0  0  0  0  0
   52.5020   -4.8345   -7.0137 C   0  0  0  0  0  0  0  0  0  0  0  0
   52.8609   -3.6463   -8.3249 S   0  0  0  0  0  0  0  0  0  0  0  0
 24 25  1  0  0  0
 25  1  1  0  0  0
  1  2  2  0  0  0
  2  3  1  0  0  0
  3  7  1  0  0  0
  7  8  2  0  0  0
  8  9  1  0  0  0
  9 10  2  0  0  0
 10 11  1  0  0  0
 10 12  1  0  0  0
 12 13  2  0  0  0
  3  4  2  0  0  0
  4 14  1  0  0  0
 14 15  2  0  0  0
 15 16  1  0  0  0
 16 17  2  0  0  0
 17 20  1  0  0  0
 20 21  1  0  0  0
 20 22  2  0  0  0
 20 23  2  0  0  0
 17 18  1  0  0  0
 18 19  2  0  0  0
  4  5  1  0  0  0
  5  1  1  0  0  0
 13  7  1  0  0  0
 19 14  1  0  0  0
  5  6  1  0  0  0
M  END
> <minimizedAffinity>
-5.83793

> <CNNscore>
0.4960126877

> <CNNaffinity>
5.6607427597

> <CNN_VS>
2.8078002930

> <CNNaffinity_variance>
0.2322793901

$$$$
[H]c1c([H])c(-c2c([H])c(SC([H])([H])[H])n([H])c2-c2c([H])c([H])c(S(=O)(=O)C([H])([H])[H])c([H])c2[H])c([H])c([H])c1F


 25 27  0  0  0  0  0  0  0  0999 V2000
   61.3746   -4.1261  -16.1946 C   0  0  0  0  0  0  0  0  0  0  0  0
   62.0650   -2.9710  -15.7980 C   0  0  0  0  0  0  0  0  0  0  0  0
   62.7027   -3.2341  -14.6111 C   0  0  0  0  0  0  0  0  0  0  0  0
   62.4066   -4.5312  -14.2866 C   0  0  0  0  0  0  0  0  0  0  0  0
   61.6093   -5.0488  -15.2485 N   0  0  0  0  0  0  0  0  0  0  0  0
   61.2202   -6.0099  -15.2814 H   0  0  0  0  0  0  0  0  0  0  0  0
   63.5304   -2.3172  -13.8483 C   0  0  0  0  0  0  0  0  0  0  0  0
   62.9828   -1.1898  -13.2712 C   0  0  0  0  0  0  0  0  0  0  0  0
   63.7201   -0.3071  -12.5538 C   0  0  0  0  0  0  0  0  0  0  0  0
   65.0647   -0.5173  -12.3785 C   0  0  0  0  0  0  0  0  0  0  0  0
   65.7531    0.3857  -11.6604 F   0  0  0  0  0  0  0  0  0  0  0  0
   65.6442   -1.6427  -12.9470 C   0  0  0  0  0  0  0  0  0  0  0  0
   64.8861   -2.5282  -13.6708 C   0  0  0  0  0  0  0  0  0  0  0  0
   62.8811   -5.2095  -13.0963 C   0  0  0  0  0  0  0  0  0  0  0  0
   64.2556   -5.3857  -12.9039 C   0  0  0  0  0  0  0  0  0  0  0  0
   64.6311   -6.0355  -11.7479 C   0  0  0  0  0  0  0  0  0  0  0  0
   63.7486   -6.5033  -10.8062 C   0  0  0  0  0  0  0  0  0  0  0  0
   62.3948   -6.3245  -11.0059 C   0  0  0  0  0  0  0  0  0  0  0  0
   61.9910   -5.6860  -12.1383 C   0  0  0  0  0  0  0  0  0  0  0  0
   64.2603   -7.3172   -9.3516 S   0  0  0  0  0  0  0  0  0  0  0  0
   63.9904   -6.2228   -7.9705 C   0  0  0  0  0  0  0  0  0  0  0  0
   65.7472   -7.5922   -9.4441 O   0  0  0  0  0  0  0  0  0  0  0  0
   63.5791   -8.6288   -9.1898 O   0  0  0  0  0  0  0  0  0  0  0  0
   58.7372   -3.6251  -17.5018 C   0  0  0  0  0  0  0  0  0  0  0  0
   60.3741   -4.3740  -17.6412 S   0  0  0  0  0  0  0  0  0  0  0  0
 24 25  1  0  0  0
 25  1  1  0  0  0
  1  2  2  0  0  0
  2  3  1  0  0  0
  3  7  1  0  0  0
  7  8  2  0  0  0
  8  9  1  0  0  0
  9 10  2  0  0  0
 10 11  1  0  0  0
 10 12  1  0  0  0
 12 13  2  0  0  0
  3  4  2  0  0  0
  4 14  1  0  0  0
 14 15  2  0  0  0
 15 16  1  0  0  0
 16 17  2  0  0  0
 17 20  1  0  0  0
 20 21  1  0  0  0
 20 22  2  0  0  0
 20 23  2  0  0  0
 17 18  1  0  0  0
 18 19  2  0  0  0
  4  5  1  0  0  0
  5  1  1  0  0  0
 13  7  1  0  0  0
 19 14  1  0  0  0
  5  6  1  0  0  0
M  END
> <minimizedAffinity>
-1.19572

> <CNNscore>
0.4889234602

> <CNNaffinity>
4.6171007156

> <CNN_VS>
2.2574088573

> <CNNaffinity_variance>
0.4339743257

$$$$
[H]c1c([H])c(-c2c([H])c(SC([H])([H])[H])n([H])c2-c2c([H])c([H])c(S(=O)(=O)C([H])([H])[H])c([H])c2[H])c([H])c([H])c1F


 25 27  0  0  0  0  0  0  0  0999 V2000
   60.5089  -10.5946   -1.1273 C   0  0  0  0  0  0  0  0  0  0  0  0
   59.4556   -9.6693   -1.1766 C   0  0  0  0  0  0  0  0  0  0  0  0
   59.7274   -8.7565   -2.1654 C   0  0  0  0  0  0  0  0  0  0  0  0
   60.9295   -9.1183   -2.7126 C   0  0  0  0  0  0  0  0  0  0  0  0
   61.3819  -10.2228   -2.0767 N   0  0  0  0  0  0  0  0  0  0  0  0
   62.2655  -10.7313   -2.2685 H   0  0  0  0  0  0  0  0  0  0  0  0
   58.9019   -7.6280   -2.5560 C   0  0  0  0  0  0  0  0  0  0  0  0
   57.8978   -7.7813   -3.4899 C   0  0  0  0  0  0  0  0  0  0  0  0
   57.1065   -6.7539   -3.8844 C   0  0  0  0  0  0  0  0  0  0  0  0
   57.2882   -5.5026   -3.3513 C   0  0  0  0  0  0  0  0  0  0  0  0
   56.4796   -4.5164   -3.7741 F   0  0  0  0  0  0  0  0  0  0  0  0
   58.2902   -5.3172   -2.4095 C   0  0  0  0  0  0  0  0  0  0  0  0
   59.0841   -6.3660   -2.0192 C   0  0  0  0  0  0  0  0  0  0  0  0
   61.5871   -8.4098   -3.7932 C   0  0  0  0  0  0  0  0  0  0  0  0
   60.9510   -8.2998   -5.0344 C   0  0  0  0  0  0  0  0  0  0  0  0
   61.6354   -7.6092   -6.0112 C   0  0  0  0  0  0  0  0  0  0  0  0
   62.8723   -7.0421   -5.8300 C   0  0  0  0  0  0  0  0  0  0  0  0
   63.4912   -7.1567   -4.6018 C   0  0  0  0  0  0  0  0  0  0  0  0
   62.8412   -7.8331   -3.6153 C   0  0  0  0  0  0  0  0  0  0  0  0
   63.7071   -6.1703   -7.0883 S   0  0  0  0  0  0  0  0  0  0  0  0
   62.8136   -6.3935   -8.6146 C   0  0  0  0  0  0  0  0  0  0  0  0
   65.0869   -6.7706   -7.2644 O   0  0  0  0  0  0  0  0  0  0  0  0
   63.8920   -4.7387   -6.7321 O   0  0  0  0  0  0  0  0  0  0  0  0
   61.6131  -13.3507   -0.8111 C   0  0  0  0  0  0  0  0  0  0  0  0
   60.7040  -11.9909   -0.0468 S   0  0  0  0  0  0  0  0  0  0  0  0
 24 25  1  0  0  0
 25  1  1  0  0  0
  1  2  2  0  0  0
  2  3  1  0  0  0
  3  7  1  0  0  0
  7  8  2  0  0  0
  8  9  1  0  0  0
  9 10  2  0  0  0
 10 11  1  0  0  0
 10 12  1  0  0  0
 12 13  2  0  0  0
  3  4  2  0  0  0
  4 14  1  0  0  0
 14 15  2  0  0  0
 15 16  1  0  0  0
 16 17  2  0  0  0
 17 20  1  0  0  0
 20 21  1  0  0  0
 20 22  2  0  0  0
 20 23  2  0  0  0
 17 18  1  0  0  0
 18 19  2  0  0  0
  4  5  1  0  0  0
  5  1  1  0  0  0
 13  7  1  0  0  0
 19 14  1  0  0  0
  5  6  1  0  0  0
M  END
> <minimizedAffinity>
-2.08545

> <CNNscore>
0.4758584201

> <CNNaffinity>
5.0119538307

> <CNN_VS>
2.3849804401

> <CNNaffinity_variance>
0.4230712354

$$$$
[H]c1c([H])c(-c2c([H])c(SC([H])([H])[H])n([H])c2-c2c([H])c([H])c(S(=O)(=O)C([H])([H])[H])c([H])c2[H])c([H])c([H])c1F


 25 27  0  0  0  0  0  0  0  0999 V2000
   63.6231   -8.0468  -15.9120 C   0  0  0  0  0  0  0  0  0  0  0  0
   63.5146   -6.6601  -16.0950 C   0  0  0  0  0  0  0  0  0  0  0  0
   63.5876   -6.0543  -14.8652 C   0  0  0  0  0  0  0  0  0  0  0  0
   63.7384   -7.0559  -13.9436 C   0  0  0  0  0  0  0  0  0  0  0  0
   63.7575   -8.2431  -14.5910 N   0  0  0  0  0  0  0  0  0  0  0  0
   63.8593   -9.1823  -14.1622 H   0  0  0  0  0  0  0  0  0  0  0  0
   63.5192   -4.6298  -14.5937 C   0  0  0  0  0  0  0  0  0  0  0  0
   64.6720   -3.8829  -14.4626 C   0  0  0  0  0  0  0  0  0  0  0  0
   64.6527   -2.5519  -14.2065 C   0  0  0  0  0  0  0  0  0  0  0  0
   63.4554   -1.8961  -14.0677 C   0  0  0  0  0  0  0  0  0  0  0  0
   63.4876   -0.5771  -13.8139 F   0  0  0  0  0  0  0  0  0  0  0  0
   62.2787   -2.6205  -14.1944 C   0  0  0  0  0  0  0  0  0  0  0  0
   62.3127   -3.9675  -14.4536 C   0  0  0  0  0  0  0  0  0  0  0  0
   63.8513   -6.8466  -12.5133 C   0  0  0  0  0  0  0  0  0  0  0  0
   65.1118   -6.6379  -11.9436 C   0  0  0  0  0  0  0  0  0  0  0  0
   65.1397   -6.4424  -10.5796 C   0  0  0  0  0  0  0  0  0  0  0  0
   64.0247   -6.4429   -9.7788 C   0  0  0  0  0  0  0  0  0  0  0  0
   62.7860   -6.6500  -10.3509 C   0  0  0  0  0  0  0  0  0  0  0  0
   62.7244   -6.8462  -11.6966 C   0  0  0  0  0  0  0  0  0  0  0  0
   64.0972   -6.1870   -8.0556 S   0  0  0  0  0  0  0  0  0  0  0  0
   65.5195   -7.0523   -7.4182 C   0  0  0  0  0  0  0  0  0  0  0  0
   62.8615   -6.7910   -7.4206 O   0  0  0  0  0  0  0  0  0  0  0  0
   64.1033   -4.7393   -7.7170 O   0  0  0  0  0  0  0  0  0  0  0  0
   64.8809  -10.5694  -16.8967 C   0  0  0  0  0  0  0  0  0  0  0  0
   63.5910   -9.3297  -17.1400 S   0  0  0  0  0  0  0  0  0  0  0  0
 24 25  1  0  0  0
 25  1  1  0  0  0
  1  2  2  0  0  0
  2  3  1  0  0  0
  3  7  1  0  0  0
  7  8  2  0  0  0
  8  9  1  0  0  0
  9 10  2  0  0  0
 10 11  1  0  0  0
 10 12  1  0  0  0
 12 13  2  0  0  0
  3  4  2  0  0  0
  4 14  1  0  0  0
 14 15  2  0  0  0
 15 16  1  0  0  0
 16 17  2  0  0  0
 17 20  1  0  0  0
 20 21  1  0  0  0
 20 22  2  0  0  0
 20 23  2  0  0  0
 17 18  1  0  0  0
 18 19  2  0  0  0
  4  5  1  0  0  0
  5  1  1  0  0  0
 13  7  1  0  0  0
 19 14  1  0  0  0
  5  6  1  0  0  0
M  END
> <minimizedAffinity>
-2.63219

> <CNNscore>
0.4675388932

> <CNNaffinity>
4.2017722130

> <CNN_VS>
1.9644919634

> <CNNaffinity_variance>
0.1929892004

$$$$
[H]c1c([H])c(-c2c([H])c(SC([H])([H])[H])n([H])c2-c2c([H])c([H])c(S(=O)(=O)C([H])([H])[H])c([H])c2[H])c([H])c([H])c1F


 25 27  0  0  0  0  0  0  0  0999 V2000
   57.2614   -4.7412   -9.9427 C   0  0  0  0  0  0  0  0  0  0  0  0
   57.5029   -5.2084   -8.6420 C   0  0  0  0  0  0  0  0  0  0  0  0
   56.3705   -5.0067   -7.8926 C   0  0  0  0  0  0  0  0  0  0  0  0
   55.4499   -4.4247   -8.7228 C   0  0  0  0  0  0  0  0  0  0  0  0
   56.0031   -4.2740   -9.9476 N   0  0  0  0  0  0  0  0  0  0  0  0
   55.5514   -3.8635  -10.7865 H   0  0  0  0  0  0  0  0  0  0  0  0
   56.1839   -5.3449   -6.4932 C   0  0  0  0  0  0  0  0  0  0  0  0
   55.9887   -6.6549   -6.1064 C   0  0  0  0  0  0  0  0  0  0  0  0
   55.8079   -7.0132   -4.8117 C   0  0  0  0  0  0  0  0  0  0  0  0
   55.8147   -6.0578   -3.8268 C   0  0  0  0  0  0  0  0  0  0  0  0
   55.6308   -6.4617   -2.5587 F   0  0  0  0  0  0  0  0  0  0  0  0
   56.0089   -4.7313   -4.1849 C   0  0  0  0  0  0  0  0  0  0  0  0
   56.1906   -4.3824   -5.4994 C   0  0  0  0  0  0  0  0  0  0  0  0
   54.1104   -4.0396   -8.3233 C   0  0  0  0  0  0  0  0  0  0  0  0
   53.5788   -2.8256   -8.7714 C   0  0  0  0  0  0  0  0  0  0  0  0
   52.2992   -2.5292   -8.3539 C   0  0  0  0  0  0  0  0  0  0  0  0
   51.5454   -3.3427   -7.5448 C   0  0  0  0  0  0  0  0  0  0  0  0
   52.0796   -4.5380   -7.1081 C   0  0  0  0  0  0  0  0  0  0  0  0
   53.3419   -4.8602   -7.5031 C   0  0  0  0  0  0  0  0  0  0  0  0
   49.9264   -2.9374   -7.0401 S   0  0  0  0  0  0  0  0  0  0  0  0
   49.6809   -3.5586   -5.3872 C   0  0  0  0  0  0  0  0  0  0  0  0
   48.9413   -3.6391   -7.9523 O   0  0  0  0  0  0  0  0  0  0  0  0
   49.6675   -1.4776   -7.1521 O   0  0  0  0  0  0  0  0  0  0  0  0
   57.6494   -3.9393  -12.7925 C   0  0  0  0  0  0  0  0  0  0  0  0
   58.3604   -4.7385  -11.3381 S   0  0  0  0  0  0  0  0  0  0  0  0
 24 25  1  0  0  0
 25  1  1  0  0  0
  1  2  2  0  0  0
  2  3  1  0  0  0
  3  7  1  0  0  0
  7  8  2  0  0  0
  8  9  1  0  0  0
  9 10  2  0  0  0
 10 11  1  0  0  0
 10 12  1  0  0  0
 12 13  2  0  0  0
  3  4  2  0  0  0
  4 14  1  0  0  0
 14 15  2  0  0  0
 15 16  1  0  0  0
 16 17  2  0  0  0
 17 20  1  0  0  0
 20 21  1  0  0  0
 20 22  2  0  0  0
 20 23  2  0  0  0
 17 18  1  0  0  0
 18 19  2  0  0  0
  4  5  1  0  0  0
  5  1  1  0  0  0
 13  7  1  0  0  0
 19 14  1  0  0  0
  5  6  1  0  0  0
M  END
> <minimizedAffinity>
-7.96739

> <CNNscore>
0.4541490972

> <CNNaffinity>
6.3651552200

> <CNN_VS>
2.8907294273

> <CNNaffinity_variance>
0.1675257385

$$$$
[H]c1c([H])c(-c2c([H])c(SC([H])([H])[H])n([H])c2-c2c([H])c([H])c(S(=O)(=O)C([H])([H])[H])c([H])c2[H])c([H])c([H])c1F


 25 27  0  0  0  0  0  0  0  0999 V2000
   63.0944   -9.2985   -9.0307 C   0  0  0  0  0  0  0  0  0  0  0  0
   63.7593   -8.0711   -8.8903 C   0  0  0  0  0  0  0  0  0  0  0  0
   63.6367   -7.6592   -7.5865 C   0  0  0  0  0  0  0  0  0  0  0  0
   62.9075   -8.6206   -6.9390 C   0  0  0  0  0  0  0  0  0  0  0  0
   62.5919   -9.5952   -7.8220 N   0  0  0  0  0  0  0  0  0  0  0  0
   62.0457  -10.4555   -7.6278 H   0  0  0  0  0  0  0  0  0  0  0  0
   64.1753   -6.4424   -7.0061 C   0  0  0  0  0  0  0  0  0  0  0  0
   64.8181   -6.4704   -5.7855 C   0  0  0  0  0  0  0  0  0  0  0  0
   65.3328   -5.3576   -5.2073 C   0  0  0  0  0  0  0  0  0  0  0  0
   65.2251   -4.1434   -5.8372 C   0  0  0  0  0  0  0  0  0  0  0  0
   65.7502   -3.0692   -5.2244 F   0  0  0  0  0  0  0  0  0  0  0  0
   64.5838   -4.0834   -7.0663 C   0  0  0  0  0  0  0  0  0  0  0  0
   64.0674   -5.2176   -7.6403 C   0  0  0  0  0  0  0  0  0  0  0  0
   62.5443   -8.5712   -5.5362 C   0  0  0  0  0  0  0  0  0  0  0  0
   63.3015   -9.2855   -4.6016 C   0  0  0  0  0  0  0  0  0  0  0  0
   62.8985   -9.1871   -3.2873 C   0  0  0  0  0  0  0  0  0  0  0  0
   61.8234   -8.4452   -2.8650 C   0  0  0  0  0  0  0  0  0  0  0  0
   61.0830   -7.7445   -3.7953 C   0  0  0  0  0  0  0  0  0  0  0  0
   61.4553   -7.8208   -5.1025 C   0  0  0  0  0  0  0  0  0  0  0  0
   61.3451   -8.3398   -1.1916 S   0  0  0  0  0  0  0  0  0  0  0  0
   62.2955   -9.5256   -0.2596 C   0  0  0  0  0  0  0  0  0  0  0  0
   59.8835   -8.7214   -1.0773 O   0  0  0  0  0  0  0  0  0  0  0  0
   61.4805   -6.9541   -0.6699 O   0  0  0  0  0  0  0  0  0  0  0  0
   62.9127  -12.0688  -10.1296 C   0  0  0  0  0  0  0  0  0  0  0  0
   62.9169  -10.2992  -10.4874 S   0  0  0  0  0  0  0  0  0  0  0  0
 24 25  1  0  0  0
 25  1  1  0  0  0
  1  2  2  0  0  0
  2  3  1  0  0  0
  3  7  1  0  0  0
  7  8  2  0  0  0
  8  9  1  0  0  0
  9 10  2  0  0  0
 10 11  1  0  0  0
 10 12  1  0  0  0
 12 13  2  0  0  0
  3  4  2  0  0  0
  4 14  1  0  0  0
 14 15  2  0  0  0
 15 16  1  0  0  0
 16 17  2  0  0  0
 17 20  1  0  0  0
 20 21  1  0  0  0
 20 22  2  0  0  0
 20 23  2  0  0  0
 17 18  1  0  0  0
 18 19  2  0  0  0
  4  5  1  0  0  0
  5  1  1  0  0  0
 13  7  1  0  0  0
 19 14  1  0  0  0
  5  6  1  0  0  0
M  END
> <minimizedAffinity>
-3.21582

> <CNNscore>
0.4343347847

> <CNNaffinity>
4.7125573158

> <CNN_VS>
2.0468275547

> <CNNaffinity_variance>
0.7697383761

$$$$
[H]c1c([H])c(-c2c([H])c(SC([H])([H])[H])n([H])c2-c2c([H])c([H])c(S(=O)(=O)C([H])([H])[H])c([H])c2[H])c([H])c([H])c1F


 25 27  0  0  0  0  0  0  0  0999 V2000
   55.4911   -4.1877  -10.2044 C   0  0  0  0  0  0  0  0  0  0  0  0
   54.1964   -3.7584   -9.8758 C   0  0  0  0  0  0  0  0  0  0  0  0
   53.9234   -4.1523   -8.5893 C   0  0  0  0  0  0  0  0  0  0  0  0
   55.0348   -4.8129   -8.1378 C   0  0  0  0  0  0  0  0  0  0  0  0
   55.9636   -4.8233   -9.1207 N   0  0  0  0  0  0  0  0  0  0  0  0
   56.9086   -5.2491   -9.0772 H   0  0  0  0  0  0  0  0  0  0  0  0
   52.6965   -3.9148   -7.8505 C   0  0  0  0  0  0  0  0  0  0  0  0
   51.9414   -2.7843   -8.0865 C   0  0  0  0  0  0  0  0  0  0  0  0
   50.7918   -2.5231   -7.4175 C   0  0  0  0  0  0  0  0  0  0  0  0
   50.3376   -3.3988   -6.4637 C   0  0  0  0  0  0  0  0  0  0  0  0
   49.1937   -3.0963   -5.8271 F   0  0  0  0  0  0  0  0  0  0  0  0
   51.0756   -4.5449   -6.2040 C   0  0  0  0  0  0  0  0  0  0  0  0
   52.2376   -4.7970   -6.8887 C   0  0  0  0  0  0  0  0  0  0  0  0
   55.1629   -5.3991   -6.8179 C   0  0  0  0  0  0  0  0  0  0  0  0
   55.6658   -4.6268   -5.7654 C   0  0  0  0  0  0  0  0  0  0  0  0
   55.7548   -5.2506   -4.5397 C   0  0  0  0  0  0  0  0  0  0  0  0
   55.3852   -6.5525   -4.3097 C   0  0  0  0  0  0  0  0  0  0  0  0
   54.8905   -7.3058   -5.3550 C   0  0  0  0  0  0  0  0  0  0  0  0
   54.7900   -6.7185   -6.5790 C   0  0  0  0  0  0  0  0  0  0  0  0
   55.5070   -7.3081   -2.7430 S   0  0  0  0  0  0  0  0  0  0  0  0
   53.8651   -7.7354   -2.1958 C   0  0  0  0  0  0  0  0  0  0  0  0
   56.0789   -6.3058   -1.7615 O   0  0  0  0  0  0  0  0  0  0  0  0
   56.4285   -8.4747   -2.7682 O   0  0  0  0  0  0  0  0  0  0  0  0
   58.0951   -4.5066  -11.6299 C   0  0  0  0  0  0  0  0  0  0  0  0
   56.3749   -3.9677  -11.7293 S   0  0  0  0  0  0  0  0  0  0  0  0
 24 25  1  0  0  0
 25  1  1  0  0  0
  1  2  2  0  0  0
  2  3  1  0  0  0
  3  7  1  0  0  0
  7  8  2  0  0  0
  8  9  1  0  0  0
  9 10  2  0  0  0
 10 11  1  0  0  0
 10 12  1  0  0  0
 12 13  2  0  0  0
  3  4  2  0  0  0
  4 14  1  0  0  0
 14 15  2  0  0  0
 15 16  1  0  0  0
 16 17  2  0  0  0
 17 20  1  0  0  0
 20 21  1  0  0  0
 20 22  2  0  0  0
 20 23  2  0  0  0
 17 18  1  0  0  0
 18 19  2  0  0  0
  4  5  1  0  0  0
  5  1  1  0  0  0
 13  7  1  0  0  0
 19 14  1  0  0  0
  5  6  1  0  0  0
M  END
> <minimizedAffinity>
-9.41429

> <CNNscore>
0.4295725226

> <CNNaffinity>
6.4014844894

> <CNN_VS>
2.7499017715

> <CNNaffinity_variance>
0.0734869018

$$$$
[H]OC([H])([H])C([H])([H])N([H])C(=O)[C@@]1([H])O[C@@]([H])(n2c([H])nc3c(N([H])C([H])([H])c4c([H])c([H])c([H])c([H])c4C([H])([H])[H])nc([H])nc32)[C@]([H])(O[H])[C@]1([H])O[H]


 36 39  0  0  0  0  0  0  0  0999 V2000
   54.0379   -3.2400   -8.8535 C   0  0  0  0  0  0  0  0  0  0  0  0
   52.9176   -2.5429   -9.1452 N   0  0  0  0  0  0  0  0  0  0  0  0
   51.7790   -2.6969   -8.4554 C   0  0  0  0  0  0  0  0  0  0  0  0
   51.7511   -3.5725   -7.4417 N   0  0  0  0  0  0  0  0  0  0  0  0
   52.8247   -4.2898   -7.1058 C   0  0  0  0  0  0  0  0  0  0  0  0
   53.9841   -4.1370   -7.8035 C   0  0  0  0  0  0  0  0  0  0  0  0
   54.9012   -4.9653   -7.2697 N   0  0  0  0  0  0  0  0  0  0  0  0
   54.3469   -5.6397   -6.2483 C   0  0  0  0  0  0  0  0  0  0  0  0
   53.0756   -5.2219   -6.1528 N   0  0  0  0  0  0  0  0  0  0  0  0
   52.1345   -5.6933   -5.1902 C   0  0  0  0  0  0  0  0  0  0  0  0
   50.9539   -4.9550   -5.1659 O   0  0  0  0  0  0  0  0  0  0  0  0
   50.3461   -5.3864   -3.9713 C   0  0  0  0  0  0  0  0  0  0  0  0
   51.4940   -5.1622   -2.9934 C   0  0  0  0  0  0  0  0  0  0  0  0
   51.2973   -5.7802   -1.7865 O   0  0  0  0  0  0  0  0  0  0  0  0
   52.6401   -5.7744   -3.7898 C   0  0  0  0  0  0  0  0  0  0  0  0
   52.7556   -7.1039   -3.3508 O   0  0  0  0  0  0  0  0  0  0  0  0
   51.8587   -5.3218   -1.0979 H   0  0  0  0  0  0  0  0  0  0  0  0
   53.6965   -7.3093   -3.0993 H   0  0  0  0  0  0  0  0  0  0  0  0
   49.1515   -4.6265   -3.6422 C   0  0  0  0  0  0  0  0  0  0  0  0
   48.5183   -4.8591   -2.5892 O   0  0  0  0  0  0  0  0  0  0  0  0
   48.6814   -3.6091   -4.5055 N   0  0  0  0  0  0  0  0  0  0  0  0
   49.1915   -3.3987   -5.3857 H   0  0  0  0  0  0  0  0  0  0  0  0
   47.4886   -2.8336   -4.1998 C   0  0  0  0  0  0  0  0  0  0  0  0
   46.3661   -3.7418   -3.8232 C   0  0  0  0  0  0  0  0  0  0  0  0
   45.8123   -3.3148   -2.6148 O   0  0  0  0  0  0  0  0  0  0  0  0
   44.8427   -3.5642   -2.5442 H   0  0  0  0  0  0  0  0  0  0  0  0
   55.2278   -3.0731   -9.6099 N   0  0  0  0  0  0  0  0  0  0  0  0
   55.7711   -2.1868   -9.4641 H   0  0  0  0  0  0  0  0  0  0  0  0
   55.7061   -4.0439  -10.5435 C   0  0  0  0  0  0  0  0  0  0  0  0
   57.6164   -4.2269  -12.6354 C   0  0  0  0  0  0  0  0  0  0  0  0
   57.9733   -4.6964  -11.2902 C   0  0  0  0  0  0  0  0  0  0  0  0
   59.2078   -5.2220  -11.0588 C   0  0  0  0  0  0  0  0  0  0  0  0
   59.5727   -5.6713   -9.8064 C   0  0  0  0  0  0  0  0  0  0  0  0
   58.6855   -5.5961   -8.7549 C   0  0  0  0  0  0  0  0  0  0  0  0
   57.4369   -5.0559   -9.0242 C   0  0  0  0  0  0  0  0  0  0  0  0
   57.0384   -4.5984  -10.2559 C   0  0  0  0  0  0  0  0  0  0  0  0
 30 31  1  0  0  0
 31 32  2  0  0  0
 32 33  1  0  0  0
 33 34  2  0  0  0
 34 35  1  0  0  0
 35 36  2  0  0  0
 36 29  1  0  0  0
 29 27  1  0  0  0
 27  1  1  0  0  0
  1  2  2  0  0  0
  2  3  1  0  0  0
  3  4  2  0  0  0
  4  5  1  0  0  0
  5  6  2  0  0  0
  6  7  1  0  0  0
  7  8  2  0  0  0
  8  9  1  0  0  0
  9 10  1  0  0  0
 10 11  1  0  0  0
 11 12  1  0  0  0
 12 19  1  0  0  0
 19 20  2  0  0  0
 19 21  1  0  0  0
 21 23  1  0  0  0
 23 24  1  0  0  0
 24 25  1  0  0  0
 12 13  1  0  0  0
 13 14  1  0  0  0
 13 15  1  0  0  0
 15 16  1  0  0  0
 36 31  1  0  0  0
  6  1  1  0  0  0
 15 10  1  0  0  0
  9  5  1  0  0  0
 27 28  1  0  0  0
 21 22  1  0  0  0
 25 26  1  0  0  0
 14 17  1  0  0  0
 16 18  1  0  0  0
M  END
> <minimizedAffinity>
-8.60754

> <CNNscore>
0.7506062388

> <CNNaffinity>
6.7690134048

> <CNN_VS>
5.0808634758

> <CNNaffinity_variance>
0.0351500213

$$$$
[H]OC([H])([H])C([H])([H])N([H])C(=O)[C@@]1([H])O[C@@]([H])(n2c([H])nc3c(N([H])C([H])([H])c4c([H])c([H])c([H])c([H])c4C([H])([H])[H])nc([H])nc32)[C@]([H])(O[H])[C@]1([H])O[H]


 36 39  0  0  0  0  0  0  0  0999 V2000
   55.6077   -3.8779   -9.9755 C   0  0  0  0  0  0  0  0  0  0  0  0
   54.2721   -3.6723   -9.9781 N   0  0  0  0  0  0  0  0  0  0  0  0
   53.4811   -4.0940   -8.9819 C   0  0  0  0  0  0  0  0  0  0  0  0
   54.0343   -4.7420   -7.9478 N   0  0  0  0  0  0  0  0  0  0  0  0
   55.3467   -4.9751   -7.8882 C   0  0  0  0  0  0  0  0  0  0  0  0
   56.1547   -4.5485   -8.8979 C   0  0  0  0  0  0  0  0  0  0  0  0
   57.4173   -4.9052   -8.5969 N   0  0  0  0  0  0  0  0  0  0  0  0
   57.4260   -5.5489   -7.4176 C   0  0  0  0  0  0  0  0  0  0  0  0
   56.1554   -5.5886   -6.9886 N   0  0  0  0  0  0  0  0  0  0  0  0
   55.7275   -6.1889   -5.7676 C   0  0  0  0  0  0  0  0  0  0  0  0
   54.3482   -6.1381   -5.5819 O   0  0  0  0  0  0  0  0  0  0  0  0
   54.2079   -6.4834   -4.2241 C   0  0  0  0  0  0  0  0  0  0  0  0
   55.1746   -5.4863   -3.5953 C   0  0  0  0  0  0  0  0  0  0  0  0
   55.4800   -5.7851   -2.2935 O   0  0  0  0  0  0  0  0  0  0  0  0
   56.3651   -5.6487   -4.5328 C   0  0  0  0  0  0  0  0  0  0  0  0
   57.2147   -6.5897   -3.9273 O   0  0  0  0  0  0  0  0  0  0  0  0
   55.7948   -4.9516   -1.8400 H   0  0  0  0  0  0  0  0  0  0  0  0
   58.1452   -6.2400   -3.8768 H   0  0  0  0  0  0  0  0  0  0  0  0
   52.8423   -6.3422   -3.7466 C   0  0  0  0  0  0  0  0  0  0  0  0
   51.9488   -5.8907   -4.4961 O   0  0  0  0  0  0  0  0  0  0  0  0
   52.4964   -6.7124   -2.4258 N   0  0  0  0  0  0  0  0  0  0  0  0
   53.2224   -7.0899   -1.7857 H   0  0  0  0  0  0  0  0  0  0  0  0
   51.1372   -6.5814   -1.9229 C   0  0  0  0  0  0  0  0  0  0  0  0
   50.7655   -7.7849   -1.1229 C   0  0  0  0  0  0  0  0  0  0  0  0
   49.6139   -7.5099   -0.3830 O   0  0  0  0  0  0  0  0  0  0  0  0
   49.0815   -8.3419   -0.2052 H   0  0  0  0  0  0  0  0  0  0  0  0
   56.4233   -3.4376  -11.0509 N   0  0  0  0  0  0  0  0  0  0  0  0
   57.0980   -2.6574  -10.8559 H   0  0  0  0  0  0  0  0  0  0  0  0
   56.3638   -4.0025  -12.3625 C   0  0  0  0  0  0  0  0  0  0  0  0
   55.9846   -3.6146  -15.1490 C   0  0  0  0  0  0  0  0  0  0  0  0
   57.3426   -3.5617  -14.5921 C   0  0  0  0  0  0  0  0  0  0  0  0
   58.4057   -3.3376  -15.4127 C   0  0  0  0  0  0  0  0  0  0  0  0
   59.6931   -3.2821  -14.9196 C   0  0  0  0  0  0  0  0  0  0  0  0
   59.9302   -3.4545  -13.5733 C   0  0  0  0  0  0  0  0  0  0  0  0
   58.8260   -3.6810  -12.7653 C   0  0  0  0  0  0  0  0  0  0  0  0
   57.5316   -3.7423  -13.2191 C   0  0  0  0  0  0  0  0  0  0  0  0
 30 31  1  0  0  0
 31 32  2  0  0  0
 32 33  1  0  0  0
 33 34  2  0  0  0
 34 35  1  0  0  0
 35 36  2  0  0  0
 36 29  1  0  0  0
 29 27  1  0  0  0
 27  1  1  0  0  0
  1  2  2  0  0  0
  2  3  1  0  0  0
  3  4  2  0  0  0
  4  5  1  0  0  0
  5  6  2  0  0  0
  6  7  1  0  0  0
  7  8  2  0  0  0
  8  9  1  0  0  0
  9 10  1  0  0  0
 10 11  1  0  0  0
 11 12  1  0  0  0
 12 19  1  0  0  0
 19 20  2  0  0  0
 19 21  1  0  0  0
 21 23  1  0  0  0
 23 24  1  0  0  0
 24 25  1  0  0  0
 12 13  1  0  0  0
 13 14  1  0  0  0
 13 15  1  0  0  0
 15 16  1  0  0  0
 36 31  1  0  0  0
  6  1  1  0  0  0
 15 10  1  0  0  0
  9  5  1  0  0  0
 27 28  1  0  0  0
 21 22  1  0  0  0
 25 26  1  0  0  0
 14 17  1  0  0  0
 16 18  1  0  0  0
M  END
> <minimizedAffinity>
-7.93675

> <CNNscore>
0.7412930131

> <CNNaffinity>
6.0853724480

> <CNN_VS>
4.5110440254

> <CNNaffinity_variance>
0.1876365244

$$$$
[H]OC([H])([H])C([H])([H])N([H])C(=O)[C@@]1([H])O[C@@]([H])(n2c([H])nc3c(N([H])C([H])([H])c4c([H])c([H])c([H])c([H])c4C([H])([H])[H])nc([H])nc32)[C@]([H])(O[H])[C@]1([H])O[H]


 36 39  0  0  0  0  0  0  0  0999 V2000
   55.4368   -3.7822  -10.0696 C   0  0  0  0  0  0  0  0  0  0  0  0
   54.1015   -3.5748  -10.0583 N   0  0  0  0  0  0  0  0  0  0  0  0
   53.3360   -3.8977   -9.0069 C   0  0  0  0  0  0  0  0  0  0  0  0
   53.9151   -4.4451   -7.9298 N   0  0  0  0  0  0  0  0  0  0  0  0
   55.2286   -4.6743   -7.8811 C   0  0  0  0  0  0  0  0  0  0  0  0
   56.0108   -4.3479   -8.9469 C   0  0  0  0  0  0  0  0  0  0  0  0
   57.2807   -4.6770   -8.6450 N   0  0  0  0  0  0  0  0  0  0  0  0
   57.3192   -5.2051   -7.4101 C   0  0  0  0  0  0  0  0  0  0  0  0
   56.0599   -5.2008   -6.9476 N   0  0  0  0  0  0  0  0  0  0  0  0
   55.6630   -5.6808   -5.6645 C   0  0  0  0  0  0  0  0  0  0  0  0
   56.2875   -5.0184   -4.6105 O   0  0  0  0  0  0  0  0  0  0  0  0
   55.9960   -5.8475   -3.5104 C   0  0  0  0  0  0  0  0  0  0  0  0
   56.4723   -7.1892   -4.0557 C   0  0  0  0  0  0  0  0  0  0  0  0
   56.0359   -8.2542   -3.3124 O   0  0  0  0  0  0  0  0  0  0  0  0
   55.8477   -7.1440   -5.4451 C   0  0  0  0  0  0  0  0  0  0  0  0
   54.6190   -7.8177   -5.3441 O   0  0  0  0  0  0  0  0  0  0  0  0
   56.6447   -9.0297   -3.4776 H   0  0  0  0  0  0  0  0  0  0  0  0
   54.5404   -8.5113   -6.0537 H   0  0  0  0  0  0  0  0  0  0  0  0
   56.6884   -5.4386   -2.2995 C   0  0  0  0  0  0  0  0  0  0  0  0
   56.9481   -4.2333   -2.0903 O   0  0  0  0  0  0  0  0  0  0  0  0
   57.0821   -6.3946   -1.3340 N   0  0  0  0  0  0  0  0  0  0  0  0
   56.8767   -7.4014   -1.4869 H   0  0  0  0  0  0  0  0  0  0  0  0
   57.7762   -6.0120   -0.1136 C   0  0  0  0  0  0  0  0  0  0  0  0
   59.2519   -6.0267   -0.3340 C   0  0  0  0  0  0  0  0  0  0  0  0
   59.6718   -4.7563   -0.7332 O   0  0  0  0  0  0  0  0  0  0  0  0
   60.6226   -4.5802   -0.4646 H   0  0  0  0  0  0  0  0  0  0  0  0
   56.2250   -3.4485  -11.2023 N   0  0  0  0  0  0  0  0  0  0  0  0
   56.5002   -2.4421  -11.3182 H   0  0  0  0  0  0  0  0  0  0  0  0
   56.6503   -4.4085  -12.1720 C   0  0  0  0  0  0  0  0  0  0  0  0
   56.0034   -3.7761  -14.8628 C   0  0  0  0  0  0  0  0  0  0  0  0
   57.3957   -3.6601  -14.4098 C   0  0  0  0  0  0  0  0  0  0  0  0
   58.3631   -3.2613  -15.2809 C   0  0  0  0  0  0  0  0  0  0  0  0
   59.6796   -3.1425  -14.8854 C   0  0  0  0  0  0  0  0  0  0  0  0
   60.0444   -3.4285  -13.5879 C   0  0  0  0  0  0  0  0  0  0  0  0
   59.0353   -3.8320  -12.7264 C   0  0  0  0  0  0  0  0  0  0  0  0
   57.7158   -3.9611  -13.0830 C   0  0  0  0  0  0  0  0  0  0  0  0
 30 31  1  0  0  0
 31 32  2  0  0  0
 32 33  1  0  0  0
 33 34  2  0  0  0
 34 35  1  0  0  0
 35 36  2  0  0  0
 36 29  1  0  0  0
 29 27  1  0  0  0
 27  1  1  0  0  0
  1  2  2  0  0  0
  2  3  1  0  0  0
  3  4  2  0  0  0
  4  5  1  0  0  0
  5  6  2  0  0  0
  6  7  1  0  0  0
  7  8  2  0  0  0
  8  9  1  0  0  0
  9 10  1  0  0  0
 10 11  1  0  0  0
 11 12  1  0  0  0
 12 19  1  0  0  0
 19 20  2  0  0  0
 19 21  1  0  0  0
 21 23  1  0  0  0
 23 24  1  0  0  0
 24 25  1  0  0  0
 12 13  1  0  0  0
 13 14  1  0  0  0
 13 15  1  0  0  0
 15 16  1  0  0  0
 36 31  1  0  0  0
  6  1  1  0  0  0
 15 10  1  0  0  0
  9  5  1  0  0  0
 27 28  1  0  0  0
 21 22  1  0  0  0
 25 26  1  0  0  0
 14 17  1  0  0  0
 16 18  1  0  0  0
M  END
> <minimizedAffinity>
-7.30049

> <CNNscore>
0.5573629141

> <CNNaffinity>
5.6829948425

> <CNN_VS>
3.1674904823

> <CNNaffinity_variance>
0.2214598358

$$$$
[H]OC([H])([H])C([H])([H])N([H])C(=O)[C@@]1([H])O[C@@]([H])(n2c([H])nc3c(N([H])C([H])([H])c4c([H])c([H])c([H])c([H])c4C([H])([H])[H])nc([H])nc32)[C@]([H])(O[H])[C@]1([H])O[H]


 36 39  0  0  0  0  0  0  0  0999 V2000
   54.7533   -4.0200   -9.2196 C   0  0  0  0  0  0  0  0  0  0  0  0
   53.4405   -3.7565   -9.0380 N   0  0  0  0  0  0  0  0  0  0  0  0
   52.8013   -4.0559   -7.8989 C   0  0  0  0  0  0  0  0  0  0  0  0
   53.4883   -4.6368   -6.9060 N   0  0  0  0  0  0  0  0  0  0  0  0
   54.7862   -4.9217   -7.0255 C   0  0  0  0  0  0  0  0  0  0  0  0
   55.4403   -4.6194   -8.1810 C   0  0  0  0  0  0  0  0  0  0  0  0
   56.7228   -5.0045   -8.0440 N   0  0  0  0  0  0  0  0  0  0  0  0
   56.8949   -5.5446   -6.8258 C   0  0  0  0  0  0  0  0  0  0  0  0
   55.7058   -5.4911   -6.2069 N   0  0  0  0  0  0  0  0  0  0  0  0
   55.4545   -5.9652   -4.8854 C   0  0  0  0  0  0  0  0  0  0  0  0
   54.1799   -6.5033   -4.7256 O   0  0  0  0  0  0  0  0  0  0  0  0
   54.0599   -6.5989   -3.3259 C   0  0  0  0  0  0  0  0  0  0  0  0
   54.4218   -5.1718   -2.9303 C   0  0  0  0  0  0  0  0  0  0  0  0
   54.6857   -5.0379   -1.5925 O   0  0  0  0  0  0  0  0  0  0  0  0
   55.6567   -4.9642   -3.7989 C   0  0  0  0  0  0  0  0  0  0  0  0
   56.7613   -5.2834   -2.9916 O   0  0  0  0  0  0  0  0  0  0  0  0
   54.5551   -4.0807   -1.3356 H   0  0  0  0  0  0  0  0  0  0  0  0
   57.4350   -4.5510   -3.0143 H   0  0  0  0  0  0  0  0  0  0  0  0
   52.7269   -6.9944   -2.9020 C   0  0  0  0  0  0  0  0  0  0  0  0
   51.7187   -6.3808   -3.3154 O   0  0  0  0  0  0  0  0  0  0  0  0
   52.5432   -8.0805   -2.0143 N   0  0  0  0  0  0  0  0  0  0  0  0
   53.3664   -8.6046   -1.6583 H   0  0  0  0  0  0  0  0  0  0  0  0
   51.2200   -8.4969   -1.5745 C   0  0  0  0  0  0  0  0  0  0  0  0
   51.3037   -9.7996   -0.8517 C   0  0  0  0  0  0  0  0  0  0  0  0
   52.2378  -10.6206   -1.4864 O   0  0  0  0  0  0  0  0  0  0  0  0
   52.6585  -11.2668   -0.8439 H   0  0  0  0  0  0  0  0  0  0  0  0
   55.4051   -3.7100  -10.4422 N   0  0  0  0  0  0  0  0  0  0  0  0
   55.5901   -2.6970  -10.6463 H   0  0  0  0  0  0  0  0  0  0  0  0
   55.8114   -4.7019  -11.3878 C   0  0  0  0  0  0  0  0  0  0  0  0
   58.5794   -4.7655  -10.7612 C   0  0  0  0  0  0  0  0  0  0  0  0
   58.1496   -4.2800  -12.0791 C   0  0  0  0  0  0  0  0  0  0  0  0
   59.0758   -3.8571  -12.9830 C   0  0  0  0  0  0  0  0  0  0  0  0
   58.7034   -3.3958  -14.2289 C   0  0  0  0  0  0  0  0  0  0  0  0
   57.3733   -3.3535  -14.5858 C   0  0  0  0  0  0  0  0  0  0  0  0
   56.4559   -3.7911  -13.6424 C   0  0  0  0  0  0  0  0  0  0  0  0
   56.7881   -4.2568  -12.3943 C   0  0  0  0  0  0  0  0  0  0  0  0
 30 31  1  0  0  0
 31 32  2  0  0  0
 32 33  1  0  0  0
 33 34  2  0  0  0
 34 35  1  0  0  0
 35 36  2  0  0  0
 36 29  1  0  0  0
 29 27  1  0  0  0
 27  1  1  0  0  0
  1  2  2  0  0  0
  2  3  1  0  0  0
  3  4  2  0  0  0
  4  5  1  0  0  0
  5  6  2  0  0  0
  6  7  1  0  0  0
  7  8  2  0  0  0
  8  9  1  0  0  0
  9 10  1  0  0  0
 10 11  1  0  0  0
 11 12  1  0  0  0
 12 19  1  0  0  0
 19 20  2  0  0  0
 19 21  1  0  0  0
 21 23  1  0  0  0
 23 24  1  0  0  0
 24 25  1  0  0  0
 12 13  1  0  0  0
 13 14  1  0  0  0
 13 15  1  0  0  0
 15 16  1  0  0  0
 36 31  1  0  0  0
  6  1  1  0  0  0
 15 10  1  0  0  0
  9  5  1  0  0  0
 27 28  1  0  0  0
 21 22  1  0  0  0
 25 26  1  0  0  0
 14 17  1  0  0  0
 16 18  1  0  0  0
M  END
> <minimizedAffinity>
-7.76289

> <CNNscore>
0.5202653408

> <CNNaffinity>
6.0377106667

> <CNN_VS>
3.1412115097

> <CNNaffinity_variance>
0.1649404019

$$$$
[H]OC([H])([H])C([H])([H])N([H])C(=O)[C@@]1([H])O[C@@]([H])(n2c([H])nc3c(N([H])C([H])([H])c4c([H])c([H])c([H])c([H])c4C([H])([H])[H])nc([H])nc32)[C@]([H])(O[H])[C@]1([H])O[H]


 36 39  0  0  0  0  0  0  0  0999 V2000
   55.6406   -4.1605   -8.0087 C   0  0  0  0  0  0  0  0  0  0  0  0
   55.5475   -4.5415   -6.7156 N   0  0  0  0  0  0  0  0  0  0  0  0
   56.4629   -5.3284   -6.1337 C   0  0  0  0  0  0  0  0  0  0  0  0
   57.5064   -5.7518   -6.8598 N   0  0  0  0  0  0  0  0  0  0  0  0
   57.6533   -5.4094   -8.1409 C   0  0  0  0  0  0  0  0  0  0  0  0
   56.7259   -4.6099   -8.7368 C   0  0  0  0  0  0  0  0  0  0  0  0
   57.1043   -4.4173  -10.0141 N   0  0  0  0  0  0  0  0  0  0  0  0
   58.2521   -5.0782  -10.2400 C   0  0  0  0  0  0  0  0  0  0  0  0
   58.5833   -5.6836   -9.0894 N   0  0  0  0  0  0  0  0  0  0  0  0
   59.7420   -6.4936   -8.9007 C   0  0  0  0  0  0  0  0  0  0  0  0
   60.8075   -5.8062   -8.3246 O   0  0  0  0  0  0  0  0  0  0  0  0
   61.8878   -6.6855   -8.5303 C   0  0  0  0  0  0  0  0  0  0  0  0
   61.7566   -6.9208  -10.0308 C   0  0  0  0  0  0  0  0  0  0  0  0
   62.4990   -7.9843  -10.4726 O   0  0  0  0  0  0  0  0  0  0  0  0
   60.2560   -7.1683  -10.1271 C   0  0  0  0  0  0  0  0  0  0  0  0
   60.0844   -8.5615  -10.0693 O   0  0  0  0  0  0  0  0  0  0  0  0
   62.6670   -7.8716  -11.4516 H   0  0  0  0  0  0  0  0  0  0  0  0
   59.5158   -8.8760  -10.8233 H   0  0  0  0  0  0  0  0  0  0  0  0
   63.1646   -6.1062   -8.1468 C   0  0  0  0  0  0  0  0  0  0  0  0
   63.8526   -5.4738   -8.9780 O   0  0  0  0  0  0  0  0  0  0  0  0
   63.6545   -6.2457   -6.8271 N   0  0  0  0  0  0  0  0  0  0  0  0
   63.0999   -6.7669   -6.1201 H   0  0  0  0  0  0  0  0  0  0  0  0
   64.9291   -5.6756   -6.4173 C   0  0  0  0  0  0  0  0  0  0  0  0
   64.8166   -5.0931   -5.0481 C   0  0  0  0  0  0  0  0  0  0  0  0
   63.9831   -5.8994   -4.2705 O   0  0  0  0  0  0  0  0  0  0  0  0
   64.2171   -5.8413   -3.2962 H   0  0  0  0  0  0  0  0  0  0  0  0
   54.6489   -3.3407   -8.6088 N   0  0  0  0  0  0  0  0  0  0  0  0
   54.8737   -2.3224   -8.7293 H   0  0  0  0  0  0  0  0  0  0  0  0
   53.3816   -3.8361   -9.0465 C   0  0  0  0  0  0  0  0  0  0  0  0
   52.3696   -5.7246   -7.1842 C   0  0  0  0  0  0  0  0  0  0  0  0
   51.7299   -4.4071   -7.2945 C   0  0  0  0  0  0  0  0  0  0  0  0
   50.6560   -4.1052   -6.5140 C   0  0  0  0  0  0  0  0  0  0  0  0
   50.0338   -2.8764   -6.5943 C   0  0  0  0  0  0  0  0  0  0  0  0
   50.4919   -1.9212   -7.4753 C   0  0  0  0  0  0  0  0  0  0  0  0
   51.5871   -2.2606   -8.2556 C   0  0  0  0  0  0  0  0  0  0  0  0
   52.2321   -3.4715   -8.2033 C   0  0  0  0  0  0  0  0  0  0  0  0
 30 31  1  0  0  0
 31 32  2  0  0  0
 32 33  1  0  0  0
 33 34  2  0  0  0
 34 35  1  0  0  0
 35 36  2  0  0  0
 36 29  1  0  0  0
 29 27  1  0  0  0
 27  1  1  0  0  0
  1  2  2  0  0  0
  2  3  1  0  0  0
  3  4  2  0  0  0
  4  5  1  0  0  0
  5  6  2  0  0  0
  6  7  1  0  0  0
  7  8  2  0  0  0
  8  9  1  0  0  0
  9 10  1  0  0  0
 10 11  1  0  0  0
 11 12  1  0  0  0
 12 19  1  0  0  0
 19 20  2  0  0  0
 19 21  1  0  0  0
 21 23  1  0  0  0
 23 24  1  0  0  0
 24 25  1  0  0  0
 12 13  1  0  0  0
 13 14  1  0  0  0
 13 15  1  0  0  0
 15 16  1  0  0  0
 36 31  1  0  0  0
  6  1  1  0  0  0
 15 10  1  0  0  0
  9  5  1  0  0  0
 27 28  1  0  0  0
 21 22  1  0  0  0
 25 26  1  0  0  0
 14 17  1  0  0  0
 16 18  1  0  0  0
M  END
> <minimizedAffinity>
-8.25976

> <CNNscore>
0.5094052553

> <CNNaffinity>
5.8504633904

> <CNN_VS>
2.9802567959

> <CNNaffinity_variance>
0.1908704489

$$$$
[H]OC([H])([H])C([H])([H])N([H])C(=O)[C@@]1([H])O[C@@]([H])(n2c([H])nc3c(N([H])C([H])([H])c4c([H])c([H])c([H])c([H])c4C([H])([H])[H])nc([H])nc32)[C@]([H])(O[H])[C@]1([H])O[H]


 36 39  0  0  0  0  0  0  0  0999 V2000
   55.3024   -3.8566  -10.1718 C   0  0  0  0  0  0  0  0  0  0  0  0
   53.9840   -3.6326   -9.9777 N   0  0  0  0  0  0  0  0  0  0  0  0
   53.3677   -3.9394   -8.8280 C   0  0  0  0  0  0  0  0  0  0  0  0
   54.0840   -4.4871   -7.8370 N   0  0  0  0  0  0  0  0  0  0  0  0
   55.3889   -4.7322   -7.9686 C   0  0  0  0  0  0  0  0  0  0  0  0
   56.0198   -4.4222   -9.1349 C   0  0  0  0  0  0  0  0  0  0  0  0
   57.3154   -4.7650   -9.0088 N   0  0  0  0  0  0  0  0  0  0  0  0
   57.5184   -5.2858   -7.7869 C   0  0  0  0  0  0  0  0  0  0  0  0
   56.3353   -5.2630   -7.1547 N   0  0  0  0  0  0  0  0  0  0  0  0
   56.1143   -5.7300   -5.8253 C   0  0  0  0  0  0  0  0  0  0  0  0
   57.2330   -6.3384   -5.2615 O   0  0  0  0  0  0  0  0  0  0  0  0
   56.6968   -6.9764   -4.1266 C   0  0  0  0  0  0  0  0  0  0  0  0
   55.5571   -7.7552   -4.7736 C   0  0  0  0  0  0  0  0  0  0  0  0
   54.6580   -8.2440   -3.8625 O   0  0  0  0  0  0  0  0  0  0  0  0
   54.9654   -6.6659   -5.6601 C   0  0  0  0  0  0  0  0  0  0  0  0
   53.9194   -6.0862   -4.9229 O   0  0  0  0  0  0  0  0  0  0  0  0
   54.1721   -9.0142   -4.2750 H   0  0  0  0  0  0  0  0  0  0  0  0
   53.0838   -6.0582   -5.4629 H   0  0  0  0  0  0  0  0  0  0  0  0
   57.6636   -7.8249   -3.4496 C   0  0  0  0  0  0  0  0  0  0  0  0
   57.3008   -8.6065   -2.5433 O   0  0  0  0  0  0  0  0  0  0  0  0
   59.0330   -7.7839   -3.8018 N   0  0  0  0  0  0  0  0  0  0  0  0
   59.3569   -7.1422   -4.5518 H   0  0  0  0  0  0  0  0  0  0  0  0
   60.0212   -8.6225   -3.1401 C   0  0  0  0  0  0  0  0  0  0  0  0
   61.3981   -8.1361   -3.4469 C   0  0  0  0  0  0  0  0  0  0  0  0
   61.3565   -6.7645   -3.7045 O   0  0  0  0  0  0  0  0  0  0  0  0
   62.2250   -6.3184   -3.4719 H   0  0  0  0  0  0  0  0  0  0  0  0
   55.9301   -3.5397  -11.4052 N   0  0  0  0  0  0  0  0  0  0  0  0
   55.9979   -2.5248  -11.6647 H   0  0  0  0  0  0  0  0  0  0  0  0
   56.4628   -4.5275  -12.2905 C   0  0  0  0  0  0  0  0  0  0  0  0
   59.1614   -3.7783  -12.7538 C   0  0  0  0  0  0  0  0  0  0  0  0
   58.1839   -3.6626  -13.8438 C   0  0  0  0  0  0  0  0  0  0  0  0
   58.5742   -3.1906  -15.0599 C   0  0  0  0  0  0  0  0  0  0  0  0
   57.6797   -3.0705  -16.1034 C   0  0  0  0  0  0  0  0  0  0  0  0
   56.3604   -3.4295  -15.9332 C   0  0  0  0  0  0  0  0  0  0  0  0
   55.9957   -3.9062  -14.6829 C   0  0  0  0  0  0  0  0  0  0  0  0
   56.8566   -4.0401  -13.6219 C   0  0  0  0  0  0  0  0  0  0  0  0
 30 31  1  0  0  0
 31 32  2  0  0  0
 32 33  1  0  0  0
 33 34  2  0  0  0
 34 35  1  0  0  0
 35 36  2  0  0  0
 36 29  1  0  0  0
 29 27  1  0  0  0
 27  1  1  0  0  0
  1  2  2  0  0  0
  2  3  1  0  0  0
  3  4  2  0  0  0
  4  5  1  0  0  0
  5  6  2  0  0  0
  6  7  1  0  0  0
  7  8  2  0  0  0
  8  9  1  0  0  0
  9 10  1  0  0  0
 10 11  1  0  0  0
 11 12  1  0  0  0
 12 19  1  0  0  0
 19 20  2  0  0  0
 19 21  1  0  0  0
 21 23  1  0  0  0
 23 24  1  0  0  0
 24 25  1  0  0  0
 12 13  1  0  0  0
 13 14  1  0  0  0
 13 15  1  0  0  0
 15 16  1  0  0  0
 36 31  1  0  0  0
  6  1  1  0  0  0
 15 10  1  0  0  0
  9  5  1  0  0  0
 27 28  1  0  0  0
 21 22  1  0  0  0
 25 26  1  0  0  0
 14 17  1  0  0  0
 16 18  1  0  0  0
M  END
> <minimizedAffinity>
-7.57995

> <CNNscore>
0.4890329838

> <CNNaffinity>
5.6053853035

> <CNN_VS>
2.7412183285

> <CNNaffinity_variance>
0.1395483166

$$$$
[H]OC([H])([H])C([H])([H])N([H])C(=O)[C@@]1([H])O[C@@]([H])(n2c([H])nc3c(N([H])C([H])([H])c4c([H])c([H])c([H])c([H])c4C([H])([H])[H])nc([H])nc32)[C@]([H])(O[H])[C@]1([H])O[H]


 36 39  0  0  0  0  0  0  0  0999 V2000
   52.9439   -4.2057   -8.3942 C   0  0  0  0  0  0  0  0  0  0  0  0
   51.8924   -3.3589   -8.3353 N   0  0  0  0  0  0  0  0  0  0  0  0
   51.1631   -3.1999   -7.2224 C   0  0  0  0  0  0  0  0  0  0  0  0
   51.4881   -3.9052   -6.1306 N   0  0  0  0  0  0  0  0  0  0  0  0
   52.5153   -4.7567   -6.1268 C   0  0  0  0  0  0  0  0  0  0  0  0
   53.2596   -4.9218   -7.2552 C   0  0  0  0  0  0  0  0  0  0  0  0
   54.2219   -5.8244   -6.9883 N   0  0  0  0  0  0  0  0  0  0  0  0
   54.1027   -6.2347   -5.7144 C   0  0  0  0  0  0  0  0  0  0  0  0
   53.0562   -5.5775   -5.1922 N   0  0  0  0  0  0  0  0  0  0  0  0
   52.5884   -5.7261   -3.8530 C   0  0  0  0  0  0  0  0  0  0  0  0
   53.4982   -6.3721   -3.0196 O   0  0  0  0  0  0  0  0  0  0  0  0
   52.7165   -6.6772   -1.8889 C   0  0  0  0  0  0  0  0  0  0  0  0
   51.5454   -7.3866   -2.5594 C   0  0  0  0  0  0  0  0  0  0  0  0
   50.4651   -7.5370   -1.7302 O   0  0  0  0  0  0  0  0  0  0  0  0
   51.2775   -6.4217   -3.7082 C   0  0  0  0  0  0  0  0  0  0  0  0
   50.2692   -5.5513   -3.2614 O   0  0  0  0  0  0  0  0  0  0  0  0
   49.9037   -8.2909   -2.0707 H   0  0  0  0  0  0  0  0  0  0  0  0
   49.5274   -5.5053   -3.9234 H   0  0  0  0  0  0  0  0  0  0  0  0
   53.4204   -7.5091   -0.9270 C   0  0  0  0  0  0  0  0  0  0  0  0
   52.7933   -8.1216   -0.0350 O   0  0  0  0  0  0  0  0  0  0  0  0
   54.8277   -7.6430   -0.9802 N   0  0  0  0  0  0  0  0  0  0  0  0
   55.3691   -7.1434   -1.7126 H   0  0  0  0  0  0  0  0  0  0  0  0
   55.5566   -8.4693   -0.0297 C   0  0  0  0  0  0  0  0  0  0  0  0
   56.9550   -8.6869   -0.5025 C   0  0  0  0  0  0  0  0  0  0  0  0
   56.9295   -9.1764   -1.8098 O   0  0  0  0  0  0  0  0  0  0  0  0
   57.7572   -8.9205   -2.3163 H   0  0  0  0  0  0  0  0  0  0  0  0
   53.6912   -4.3709   -9.5900 N   0  0  0  0  0  0  0  0  0  0  0  0
   53.3943   -5.1385  -10.2416 H   0  0  0  0  0  0  0  0  0  0  0  0
   54.8095   -3.5505   -9.9356 C   0  0  0  0  0  0  0  0  0  0  0  0
   56.3618   -3.9367  -12.2807 C   0  0  0  0  0  0  0  0  0  0  0  0
   56.8848   -4.3941  -10.9867 C   0  0  0  0  0  0  0  0  0  0  0  0
   58.0997   -5.0053  -10.9221 C   0  0  0  0  0  0  0  0  0  0  0  0
   58.6180   -5.4457   -9.7216 C   0  0  0  0  0  0  0  0  0  0  0  0
   57.9085   -5.2739   -8.5530 C   0  0  0  0  0  0  0  0  0  0  0  0
   56.6750   -4.6481   -8.6537 C   0  0  0  0  0  0  0  0  0  0  0  0
   56.1273   -4.1964   -9.8288 C   0  0  0  0  0  0  0  0  0  0  0  0
 30 31  1  0  0  0
 31 32  2  0  0  0
 32 33  1  0  0  0
 33 34  2  0  0  0
 34 35  1  0  0  0
 35 36  2  0  0  0
 36 29  1  0  0  0
 29 27  1  0  0  0
 27  1  1  0  0  0
  1  2  2  0  0  0
  2  3  1  0  0  0
  3  4  2  0  0  0
  4  5  1  0  0  0
  5  6  2  0  0  0
  6  7  1  0  0  0
  7  8  2  0  0  0
  8  9  1  0  0  0
  9 10  1  0  0  0
 10 11  1  0  0  0
 11 12  1  0  0  0
 12 19  1  0  0  0
 19 20  2  0  0  0
 19 21  1  0  0  0
 21 23  1  0  0  0
 23 24  1  0  0  0
 24 25  1  0  0  0
 12 13  1  0  0  0
 13 14  1  0  0  0
 13 15  1  0  0  0
 15 16  1  0  0  0
 36 31  1  0  0  0
  6  1  1  0  0  0
 15 10  1  0  0  0
  9  5  1  0  0  0
 27 28  1  0  0  0
 21 22  1  0  0  0
 25 26  1  0  0  0
 14 17  1  0  0  0
 16 18  1  0  0  0
M  END
> <minimizedAffinity>
-8.32791

> <CNNscore>
0.4424684644

> <CNNaffinity>
6.2960367203

> <CNN_VS>
2.7857975960

> <CNNaffinity_variance>
0.5565884113

$$$$
[H]OC([H])([H])C([H])([H])N([H])C(=O)[C@@]1([H])O[C@@]([H])(n2c([H])nc3c(N([H])C([H])([H])c4c([H])c([H])c([H])c([H])c4C([H])([H])[H])nc([H])nc32)[C@]([H])(O[H])[C@]1([H])O[H]


 36 39  0  0  0  0  0  0  0  0999 V2000
   54.2591   -3.7528   -9.0398 C   0  0  0  0  0  0  0  0  0  0  0  0
   52.9388   -3.4658   -9.0149 N   0  0  0  0  0  0  0  0  0  0  0  0
   52.1819   -3.6727   -7.9286 C   0  0  0  0  0  0  0  0  0  0  0  0
   52.7544   -4.1818   -6.8295 N   0  0  0  0  0  0  0  0  0  0  0  0
   54.0531   -4.4853   -6.7927 C   0  0  0  0  0  0  0  0  0  0  0  0
   54.8266   -4.2769   -7.8939 C   0  0  0  0  0  0  0  0  0  0  0  0
   56.0822   -4.6607   -7.5968 N   0  0  0  0  0  0  0  0  0  0  0  0
   56.1203   -5.1080   -6.3304 C   0  0  0  0  0  0  0  0  0  0  0  0
   54.8750   -4.9981   -5.8433 N   0  0  0  0  0  0  0  0  0  0  0  0
   54.4824   -5.3684   -4.5230 C   0  0  0  0  0  0  0  0  0  0  0  0
   55.5312   -5.8700   -3.7562 O   0  0  0  0  0  0  0  0  0  0  0  0
   54.8622   -6.4427   -2.6575 C   0  0  0  0  0  0  0  0  0  0  0  0
   53.8612   -7.3297   -3.3891 C   0  0  0  0  0  0  0  0  0  0  0  0
   52.8600   -7.7908   -2.5753 O   0  0  0  0  0  0  0  0  0  0  0  0
   53.3608   -6.3474   -4.4414 C   0  0  0  0  0  0  0  0  0  0  0  0
   52.1961   -5.7666   -3.9124 O   0  0  0  0  0  0  0  0  0  0  0  0
   52.4709   -8.6160   -2.9841 H   0  0  0  0  0  0  0  0  0  0  0  0
   51.4473   -5.8259   -4.5655 H   0  0  0  0  0  0  0  0  0  0  0  0
   55.7541   -7.1822   -1.7797 C   0  0  0  0  0  0  0  0  0  0  0  0
   55.3136   -8.0922   -1.0437 O   0  0  0  0  0  0  0  0  0  0  0  0
   57.1373   -6.8879   -1.7402 N   0  0  0  0  0  0  0  0  0  0  0  0
   57.5253   -6.1361   -2.3430 H   0  0  0  0  0  0  0  0  0  0  0  0
   58.0517   -7.6129   -0.8708 C   0  0  0  0  0  0  0  0  0  0  0  0
   58.6213   -8.7902   -1.5893 C   0  0  0  0  0  0  0  0  0  0  0  0
   57.5817   -9.5420   -2.1404 O   0  0  0  0  0  0  0  0  0  0  0  0
   57.8786  -10.0365   -2.9617 H   0  0  0  0  0  0  0  0  0  0  0  0
   55.0374   -3.5417  -10.2083 N   0  0  0  0  0  0  0  0  0  0  0  0
   55.2656   -2.5492  -10.4625 H   0  0  0  0  0  0  0  0  0  0  0  0
   55.5131   -4.6053  -11.0363 C   0  0  0  0  0  0  0  0  0  0  0  0
   58.0742   -5.2947  -10.0242 C   0  0  0  0  0  0  0  0  0  0  0  0
   57.9699   -4.6317  -11.3307 C   0  0  0  0  0  0  0  0  0  0  0  0
   59.0965   -4.3453  -12.0396 C   0  0  0  0  0  0  0  0  0  0  0  0
   59.0312   -3.7234  -13.2695 C   0  0  0  0  0  0  0  0  0  0  0  0
   57.8120   -3.3765  -13.8095 C   0  0  0  0  0  0  0  0  0  0  0  0
   56.6845   -3.6822  -13.0620 C   0  0  0  0  0  0  0  0  0  0  0  0
   56.7098   -4.3001  -11.8362 C   0  0  0  0  0  0  0  0  0  0  0  0
 30 31  1  0  0  0
 31 32  2  0  0  0
 32 33  1  0  0  0
 33 34  2  0  0  0
 34 35  1  0  0  0
 35 36  2  0  0  0
 36 29  1  0  0  0
 29 27  1  0  0  0
 27  1  1  0  0  0
  1  2  2  0  0  0
  2  3  1  0  0  0
  3  4  2  0  0  0
  4  5  1  0  0  0
  5  6  2  0  0  0
  6  7  1  0  0  0
  7  8  2  0  0  0
  8  9  1  0  0  0
  9 10  1  0  0  0
 10 11  1  0  0  0
 11 12  1  0  0  0
 12 19  1  0  0  0
 19 20  2  0  0  0
 19 21  1  0  0  0
 21 23  1  0  0  0
 23 24  1  0  0  0
 24 25  1  0  0  0
 12 13  1  0  0  0
 13 14  1  0  0  0
 13 15  1  0  0  0
 15 16  1  0  0  0
 36 31  1  0  0  0
  6  1  1  0  0  0
 15 10  1  0  0  0
  9  5  1  0  0  0
 27 28  1  0  0  0
 21 22  1  0  0  0
 25 26  1  0  0  0
 14 17  1  0  0  0
 16 18  1  0  0  0
M  END
> <minimizedAffinity>
-6.75056

> <CNNscore>
0.4319094121

> <CNNaffinity>
6.0069608688

> <CNN_VS>
2.5944628716

> <CNNaffinity_variance>
0.4080812335

$$$$
[H]OC([H])([H])C([H])([H])N([H])C(=O)[C@@]1([H])O[C@@]([H])(n2c([H])nc3c(N([H])C([H])([H])c4c([H])c([H])c([H])c([H])c4C([H])([H])[H])nc([H])nc32)[C@]([H])(O[H])[C@]1([H])O[H]


 36 39  0  0  0  0  0  0  0  0999 V2000
   54.4553   -4.3145   -8.3280 C   0  0  0  0  0  0  0  0  0  0  0  0
   53.1560   -4.3848   -7.9634 N   0  0  0  0  0  0  0  0  0  0  0  0
   52.7497   -5.0821   -6.8936 C   0  0  0  0  0  0  0  0  0  0  0  0
   53.6638   -5.7319   -6.1606 N   0  0  0  0  0  0  0  0  0  0  0  0
   54.9612   -5.7003   -6.4700 C   0  0  0  0  0  0  0  0  0  0  0  0
   55.3792   -4.9931   -7.5561 C   0  0  0  0  0  0  0  0  0  0  0  0
   56.7161   -5.1224   -7.6453 N   0  0  0  0  0  0  0  0  0  0  0  0
   57.1538   -5.8970   -6.6383 C   0  0  0  0  0  0  0  0  0  0  0  0
   56.0748   -6.2476   -5.9223 N   0  0  0  0  0  0  0  0  0  0  0  0
   56.1033   -7.0738   -4.7599 C   0  0  0  0  0  0  0  0  0  0  0  0
   54.8463   -7.2741   -4.1948 O   0  0  0  0  0  0  0  0  0  0  0  0
   55.1588   -7.8234   -2.9366 C   0  0  0  0  0  0  0  0  0  0  0  0
   56.1480   -6.7799   -2.4297 C   0  0  0  0  0  0  0  0  0  0  0  0
   56.8607   -7.2037   -1.3389 O   0  0  0  0  0  0  0  0  0  0  0  0
   57.0143   -6.6145   -3.6725 C   0  0  0  0  0  0  0  0  0  0  0  0
   58.1082   -7.4801   -3.5053 O   0  0  0  0  0  0  0  0  0  0  0  0
   57.1986   -6.4015   -0.8471 H   0  0  0  0  0  0  0  0  0  0  0  0
   58.9647   -6.9944   -3.6512 H   0  0  0  0  0  0  0  0  0  0  0  0
   53.9916   -7.9739   -2.0835 C   0  0  0  0  0  0  0  0  0  0  0  0
   54.1012   -7.9224   -0.8388 O   0  0  0  0  0  0  0  0  0  0  0  0
   52.7090   -8.1812   -2.6433 N   0  0  0  0  0  0  0  0  0  0  0  0
   52.5943   -8.2273   -3.6747 H   0  0  0  0  0  0  0  0  0  0  0  0
   51.5245   -8.3347   -1.8121 C   0  0  0  0  0  0  0  0  0  0  0  0
   50.8252   -7.0248   -1.6647 C   0  0  0  0  0  0  0  0  0  0  0  0
   49.9593   -7.0841   -0.5710 O   0  0  0  0  0  0  0  0  0  0  0  0
   49.8226   -6.1794   -0.1586 H   0  0  0  0  0  0  0  0  0  0  0  0
   54.8602   -3.5839   -9.4761 N   0  0  0  0  0  0  0  0  0  0  0  0
   54.9744   -2.5457   -9.3711 H   0  0  0  0  0  0  0  0  0  0  0  0
   55.1133   -4.1931  -10.7442 C   0  0  0  0  0  0  0  0  0  0  0  0
   55.9112   -3.3247  -13.3264 C   0  0  0  0  0  0  0  0  0  0  0  0
   56.9178   -3.8700  -12.4063 C   0  0  0  0  0  0  0  0  0  0  0  0
   58.2181   -3.9636  -12.7990 C   0  0  0  0  0  0  0  0  0  0  0  0
   59.1866   -4.4711  -11.9576 C   0  0  0  0  0  0  0  0  0  0  0  0
   58.8530   -4.8976  -10.6906 C   0  0  0  0  0  0  0  0  0  0  0  0
   57.5205   -4.7887  -10.3220 C   0  0  0  0  0  0  0  0  0  0  0  0
   56.5298   -4.2891  -11.1306 C   0  0  0  0  0  0  0  0  0  0  0  0
 30 31  1  0  0  0
 31 32  2  0  0  0
 32 33  1  0  0  0
 33 34  2  0  0  0
 34 35  1  0  0  0
 35 36  2  0  0  0
 36 29  1  0  0  0
 29 27  1  0  0  0
 27  1  1  0  0  0
  1  2  2  0  0  0
  2  3  1  0  0  0
  3  4  2  0  0  0
  4  5  1  0  0  0
  5  6  2  0  0  0
  6  7  1  0  0  0
  7  8  2  0  0  0
  8  9  1  0  0  0
  9 10  1  0  0  0
 10 11  1  0  0  0
 11 12  1  0  0  0
 12 19  1  0  0  0
 19 20  2  0  0  0
 19 21  1  0  0  0
 21 23  1  0  0  0
 23 24  1  0  0  0
 24 25  1  0  0  0
 12 13  1  0  0  0
 13 14  1  0  0  0
 13 15  1  0  0  0
 15 16  1  0  0  0
 36 31  1  0  0  0
  6  1  1  0  0  0
 15 10  1  0  0  0
  9  5  1  0  0  0
 27 28  1  0  0  0
 21 22  1  0  0  0
 25 26  1  0  0  0
 14 17  1  0  0  0
 16 18  1  0  0  0
M  END
> <minimizedAffinity>
-6.86170

> <CNNscore>
0.4188471735

> <CNNaffinity>
5.8426985741

> <CNN_VS>
2.4471976757

> <CNNaffinity_variance>
0.2073308676

$$$$
[H]c1c([H])c([H])c(S(=O)(=O)c2c([H])c([H])c3c(c2[H])c2c(n3[H])C([H])([H])C([H])([H])C([H])(N([H])[H])C2([H])[H])c([H])c1[H]


 26 29  0  0  0  0  0  0  0  0999 V2000
   51.2716   -2.0829   -9.2158 N   0  0  0  0  0  0  0  0  0  0  0  0
   52.0683   -2.7171   -8.1685 C   0  0  0  0  0  0  0  0  0  0  0  0
   51.1534   -3.1685   -7.0889 C   0  0  0  0  0  0  0  0  0  0  0  0
   51.5458   -4.4366   -6.4019 C   0  0  0  0  0  0  0  0  0  0  0  0
   52.9527   -4.8264   -6.5977 C   0  0  0  0  0  0  0  0  0  0  0  0
   53.7979   -5.4842   -5.8038 N   0  0  0  0  0  0  0  0  0  0  0  0
   54.9819   -5.6136   -6.3979 C   0  0  0  0  0  0  0  0  0  0  0  0
   56.1905   -6.2059   -6.0128 C   0  0  0  0  0  0  0  0  0  0  0  0
   57.2341   -6.1467   -6.9094 C   0  0  0  0  0  0  0  0  0  0  0  0
   57.1390   -5.5460   -8.1330 C   0  0  0  0  0  0  0  0  0  0  0  0
   55.9465   -4.9646   -8.5064 C   0  0  0  0  0  0  0  0  0  0  0  0
   54.8937   -5.0139   -7.6244 C   0  0  0  0  0  0  0  0  0  0  0  0
   53.6196   -4.5194   -7.7505 C   0  0  0  0  0  0  0  0  0  0  0  0
   52.8878   -3.7804   -8.8038 C   0  0  0  0  0  0  0  0  0  0  0  0
   51.7703   -2.1436  -10.1148 H   0  0  0  0  0  0  0  0  0  0  0  0
   50.9764   -1.1305   -8.9384 H   0  0  0  0  0  0  0  0  0  0  0  0
   53.6043   -5.8652   -4.8405 H   0  0  0  0  0  0  0  0  0  0  0  0
   58.4989   -5.5015   -9.2310 S   0  0  0  0  0  0  0  0  0  0  0  0
   58.9687   -6.8977   -9.4614 O   0  0  0  0  0  0  0  0  0  0  0  0
   59.6009   -4.7060   -8.5956 O   0  0  0  0  0  0  0  0  0  0  0  0
   57.9533   -4.7453  -10.7113 C   0  0  0  0  0  0  0  0  0  0  0  0
   56.6111   -4.5380  -10.9113 C   0  0  0  0  0  0  0  0  0  0  0  0
   56.0909   -3.9487  -12.0486 C   0  0  0  0  0  0  0  0  0  0  0  0
   56.9939   -3.5571  -13.0198 C   0  0  0  0  0  0  0  0  0  0  0  0
   58.3551   -3.7538  -12.8450 C   0  0  0  0  0  0  0  0  0  0  0  0
   58.8209   -4.3443  -11.6960 C   0  0  0  0  0  0  0  0  0  0  0  0
  1  2  1  0  0  0
  2  3  1  0  0  0
  3  4  1  0  0  0
  4  5  1  0  0  0
  5  6  1  0  0  0
  6  7  1  0  0  0
  7  8  2  0  0  0
  8  9  1  0  0  0
  9 10  2  0  0  0
 10 18  1  0  0  0
 18 19  2  0  0  0
 18 20  2  0  0  0
 18 21  1  0  0  0
 21 22  2  0  0  0
 22 23  1  0  0  0
 23 24  2  0  0  0
 24 25  1  0  0  0
 25 26  2  0  0  0
 10 11  1  0  0  0
 11 12  2  0  0  0
 12 13  1  0  0  0
 13 14  1  0  0  0
 14  2  1  0  0  0
 13  5  2  0  0  0
 12  7  1  0  0  0
 26 21  1  0  0  0
  1 15  1  0  0  0
  1 16  1  0  0  0
  6 17  1  0  0  0
M  END
> <minimizedAffinity>
-6.51754

> <CNNscore>
0.4760930836

> <CNNaffinity>
6.3403553963

> <CNN_VS>
3.0185992718

> <CNNaffinity_variance>
0.2460209876

$$$$
[H]c1c([H])c([H])c(S(=O)(=O)c2c([H])c([H])c3c(c2[H])c2c(n3[H])C([H])([H])C([H])([H])C([H])(N([H])[H])C2([H])[H])c([H])c1[H]


 26 29  0  0  0  0  0  0  0  0999 V2000
   50.0296   -1.2244   -7.8092 N   0  0  0  0  0  0  0  0  0  0  0  0
   50.5629   -2.3667   -7.0711 C   0  0  0  0  0  0  0  0  0  0  0  0
   49.4252   -3.2058   -6.6155 C   0  0  0  0  0  0  0  0  0  0  0  0
   49.6816   -4.6782   -6.5910 C   0  0  0  0  0  0  0  0  0  0  0  0
   51.1065   -5.0499   -6.6202 C   0  0  0  0  0  0  0  0  0  0  0  0
   51.7510   -6.0912   -6.0934 N   0  0  0  0  0  0  0  0  0  0  0  0
   53.0499   -6.0196   -6.3748 C   0  0  0  0  0  0  0  0  0  0  0  0
   54.1456   -6.8357   -6.0697 C   0  0  0  0  0  0  0  0  0  0  0  0
   55.3771   -6.4379   -6.5406 C   0  0  0  0  0  0  0  0  0  0  0  0
   55.5679   -5.3033   -7.2776 C   0  0  0  0  0  0  0  0  0  0  0  0
   54.4853   -4.5039   -7.5748 C   0  0  0  0  0  0  0  0  0  0  0  0
   53.2482   -4.8850   -7.1132 C   0  0  0  0  0  0  0  0  0  0  0  0
   52.0281   -4.2756   -7.2677 C   0  0  0  0  0  0  0  0  0  0  0  0
   51.5551   -3.0461   -7.9428 C   0  0  0  0  0  0  0  0  0  0  0  0
   50.7390   -0.8776   -8.4703 H   0  0  0  0  0  0  0  0  0  0  0  0
   49.6385   -0.5124   -7.1680 H   0  0  0  0  0  0  0  0  0  0  0  0
   51.3375   -6.8799   -5.5298 H   0  0  0  0  0  0  0  0  0  0  0  0
   57.1562   -4.8480   -7.8493 S   0  0  0  0  0  0  0  0  0  0  0  0
   58.1208   -5.9219   -7.4759 O   0  0  0  0  0  0  0  0  0  0  0  0
   57.5568   -3.5668   -7.1790 O   0  0  0  0  0  0  0  0  0  0  0  0
   57.0504   -4.6417   -9.5833 C   0  0  0  0  0  0  0  0  0  0  0  0
   58.1564   -4.8758  -10.3622 C   0  0  0  0  0  0  0  0  0  0  0  0
   58.1643   -4.7381  -11.7377 C   0  0  0  0  0  0  0  0  0  0  0  0
   56.9813   -4.3422  -12.3342 C   0  0  0  0  0  0  0  0  0  0  0  0
   55.8486   -4.0988  -11.5727 C   0  0  0  0  0  0  0  0  0  0  0  0
   55.8933   -4.2502  -10.2086 C   0  0  0  0  0  0  0  0  0  0  0  0
  1  2  1  0  0  0
  2  3  1  0  0  0
  3  4  1  0  0  0
  4  5  1  0  0  0
  5  6  1  0  0  0
  6  7  1  0  0  0
  7  8  2  0  0  0
  8  9  1  0  0  0
  9 10  2  0  0  0
 10 18  1  0  0  0
 18 19  2  0  0  0
 18 20  2  0  0  0
 18 21  1  0  0  0
 21 22  2  0  0  0
 22 23  1  0  0  0
 23 24  2  0  0  0
 24 25  1  0  0  0
 25 26  2  0  0  0
 10 11  1  0  0  0
 11 12  2  0  0  0
 12 13  1  0  0  0
 13 14  1  0  0  0
 14  2  1  0  0  0
 13  5  2  0  0  0
 12  7  1  0  0  0
 26 21  1  0  0  0
  1 15  1  0  0  0
  1 16  1  0  0  0
  6 17  1  0  0  0
M  END
> <minimizedAffinity>
-8.91289

> <CNNscore>
0.4621570408

> <CNNaffinity>
6.6908264160

> <CNN_VS>
3.0922124386

> <CNNaffinity_variance>
0.2613763809

$$$$
[H]c1c([H])c([H])c(S(=O)(=O)c2c([H])c([H])c3c(c2[H])c2c(n3[H])C([H])([H])C([H])([H])C([H])(N([H])[H])C2([H])[H])c([H])c1[H]


 26 29  0  0  0  0  0  0  0  0999 V2000
   53.1533   -6.9789   -1.5983 N   0  0  0  0  0  0  0  0  0  0  0  0
   54.2663   -6.6263   -2.4763 C   0  0  0  0  0  0  0  0  0  0  0  0
   55.4135   -7.5164   -2.1632 C   0  0  0  0  0  0  0  0  0  0  0  0
   56.2656   -7.9014   -3.3292 C   0  0  0  0  0  0  0  0  0  0  0  0
   56.1036   -7.0409   -4.5136 C   0  0  0  0  0  0  0  0  0  0  0  0
   56.9682   -6.6891   -5.4655 N   0  0  0  0  0  0  0  0  0  0  0  0
   56.3790   -5.8876   -6.3499 C   0  0  0  0  0  0  0  0  0  0  0  0
   56.8237   -5.2489   -7.5135 C   0  0  0  0  0  0  0  0  0  0  0  0
   55.9107   -4.4750   -8.1947 C   0  0  0  0  0  0  0  0  0  0  0  0
   54.6165   -4.3094   -7.7890 C   0  0  0  0  0  0  0  0  0  0  0  0
   54.1846   -4.9408   -6.6426 C   0  0  0  0  0  0  0  0  0  0  0  0
   55.0819   -5.7175   -5.9495 C   0  0  0  0  0  0  0  0  0  0  0  0
   54.9083   -6.4415   -4.7964 C   0  0  0  0  0  0  0  0  0  0  0  0
   53.7736   -6.6801   -3.8763 C   0  0  0  0  0  0  0  0  0  0  0  0
   52.2638   -6.7091   -2.0416 H   0  0  0  0  0  0  0  0  0  0  0  0
   53.2987   -6.6118   -0.6416 H   0  0  0  0  0  0  0  0  0  0  0  0
   57.9786   -6.9769   -5.5490 H   0  0  0  0  0  0  0  0  0  0  0  0
   53.5010   -3.3137   -8.6952 S   0  0  0  0  0  0  0  0  0  0  0  0
   53.3571   -3.8873  -10.0639 O   0  0  0  0  0  0  0  0  0  0  0  0
   54.0690   -1.9286   -8.7953 O   0  0  0  0  0  0  0  0  0  0  0  0
   51.9812   -3.3067   -7.8287 C   0  0  0  0  0  0  0  0  0  0  0  0
   51.5859   -4.4297   -7.1453 C   0  0  0  0  0  0  0  0  0  0  0  0
   50.4031   -4.5139   -6.4345 C   0  0  0  0  0  0  0  0  0  0  0  0
   49.5947   -3.3921   -6.4291 C   0  0  0  0  0  0  0  0  0  0  0  0
   49.9684   -2.2439   -7.1104 C   0  0  0  0  0  0  0  0  0  0  0  0
   51.1545   -2.2118   -7.8019 C   0  0  0  0  0  0  0  0  0  0  0  0
  1  2  1  0  0  0
  2  3  1  0  0  0
  3  4  1  0  0  0
  4  5  1  0  0  0
  5  6  1  0  0  0
  6  7  1  0  0  0
  7  8  2  0  0  0
  8  9  1  0  0  0
  9 10  2  0  0  0
 10 18  1  0  0  0
 18 19  2  0  0  0
 18 20  2  0  0  0
 18 21  1  0  0  0
 21 22  2  0  0  0
 22 23  1  0  0  0
 23 24  2  0  0  0
 24 25  1  0  0  0
 25 26  2  0  0  0
 10 11  1  0  0  0
 11 12  2  0  0  0
 12 13  1  0  0  0
 13 14  1  0  0  0
 14  2  1  0  0  0
 13  5  2  0  0  0
 12  7  1  0  0  0
 26 21  1  0  0  0
  1 15  1  0  0  0
  1 16  1  0  0  0
  6 17  1  0  0  0
M  END
> <minimizedAffinity>
-9.66930

> <CNNscore>
0.4120523036

> <CNNaffinity>
6.2731103897

> <CNN_VS>
2.5848495960

> <CNNaffinity_variance>
0.1061529368

$$$$
[H]c1c([H])c([H])c(S(=O)(=O)c2c([H])c([H])c3c(c2[H])c2c(n3[H])C([H])([H])C([H])([H])C([H])(N([H])[H])C2([H])[H])c([H])c1[H]


 26 29  0  0  0  0  0  0  0  0999 V2000
   63.3817   -7.0725   -7.1804 N   0  0  0  0  0  0  0  0  0  0  0  0
   62.5286   -6.3545   -8.1242 C   0  0  0  0  0  0  0  0  0  0  0  0
   63.1174   -6.4813   -9.4819 C   0  0  0  0  0  0  0  0  0  0  0  0
   62.1337   -6.5671  -10.6039 C   0  0  0  0  0  0  0  0  0  0  0  0
   60.7761   -6.1099  -10.2613 C   0  0  0  0  0  0  0  0  0  0  0  0
   59.8337   -5.5297  -11.0045 N   0  0  0  0  0  0  0  0  0  0  0  0
   58.7503   -5.2893  -10.2696 C   0  0  0  0  0  0  0  0  0  0  0  0
   57.5068   -4.7113  -10.5516 C   0  0  0  0  0  0  0  0  0  0  0  0
   56.6037   -4.6246   -9.5155 C   0  0  0  0  0  0  0  0  0  0  0  0
   56.8672   -5.0705   -8.2511 C   0  0  0  0  0  0  0  0  0  0  0  0
   58.0932   -5.6387   -7.9797 C   0  0  0  0  0  0  0  0  0  0  0  0
   59.0074   -5.7337   -9.0015 C   0  0  0  0  0  0  0  0  0  0  0  0
   60.2794   -6.2492   -8.9956 C   0  0  0  0  0  0  0  0  0  0  0  0
   61.1459   -6.8746   -7.9713 C   0  0  0  0  0  0  0  0  0  0  0  0
   62.8260   -7.3634   -6.3635 H   0  0  0  0  0  0  0  0  0  0  0  0
   64.2376   -6.5332   -6.9623 H   0  0  0  0  0  0  0  0  0  0  0  0
   59.8906   -5.2783  -12.0264 H   0  0  0  0  0  0  0  0  0  0  0  0
   55.6807   -4.9340   -6.9742 S   0  0  0  0  0  0  0  0  0  0  0  0
   56.3001   -4.2121   -5.8260 O   0  0  0  0  0  0  0  0  0  0  0  0
   55.2868   -6.3144   -6.5377 O   0  0  0  0  0  0  0  0  0  0  0  0
   54.3076   -4.0666   -7.6246 C   0  0  0  0  0  0  0  0  0  0  0  0
   53.0367   -4.4497   -7.2745 C   0  0  0  0  0  0  0  0  0  0  0  0
   51.8953   -3.8232   -7.7394 C   0  0  0  0  0  0  0  0  0  0  0  0
   52.0734   -2.7569   -8.6016 C   0  0  0  0  0  0  0  0  0  0  0  0
   53.3451   -2.3479   -8.9724 C   0  0  0  0  0  0  0  0  0  0  0  0
   54.4472   -3.0045   -8.4822 C   0  0  0  0  0  0  0  0  0  0  0  0
  1  2  1  0  0  0
  2  3  1  0  0  0
  3  4  1  0  0  0
  4  5  1  0  0  0
  5  6  1  0  0  0
  6  7  1  0  0  0
  7  8  2  0  0  0
  8  9  1  0  0  0
  9 10  2  0  0  0
 10 18  1  0  0  0
 18 19  2  0  0  0
 18 20  2  0  0  0
 18 21  1  0  0  0
 21 22  2  0  0  0
 22 23  1  0  0  0
 23 24  2  0  0  0
 24 25  1  0  0  0
 25 26  2  0  0  0
 10 11  1  0  0  0
 11 12  2  0  0  0
 12 13  1  0  0  0
 13 14  1  0  0  0
 14  2  1  0  0  0
 13  5  2  0  0  0
 12  7  1  0  0  0
 26 21  1  0  0  0
  1 15  1  0  0  0
  1 16  1  0  0  0
  6 17  1  0  0  0
M  END
> <minimizedAffinity>
-7.01153

> <CNNscore>
0.3827902973

> <CNNaffinity>
5.3131413460

> <CNN_VS>
2.0338189602

> <CNNaffinity_variance>
0.1045544967

$$$$
[H]c1c([H])c([H])c(S(=O)(=O)c2c([H])c([H])c3c(c2[H])c2c(n3[H])C([H])([H])C([H])([H])C([H])(N([H])[H])C2([H])[H])c([H])c1[H]


 26 29  0  0  0  0  0  0  0  0999 V2000
   61.6937   -7.2416   -7.1290 N   0  0  0  0  0  0  0  0  0  0  0  0
   61.2614   -6.3649   -8.2145 C   0  0  0  0  0  0  0  0  0  0  0  0
   62.1747   -6.5597   -9.3695 C   0  0  0  0  0  0  0  0  0  0  0  0
   61.5394   -6.4475  -10.7178 C   0  0  0  0  0  0  0  0  0  0  0  0
   60.2313   -5.7706  -10.7213 C   0  0  0  0  0  0  0  0  0  0  0  0
   59.6367   -5.0187  -11.6478 N   0  0  0  0  0  0  0  0  0  0  0  0
   58.4452   -4.6118  -11.2161 C   0  0  0  0  0  0  0  0  0  0  0  0
   57.4374   -3.8209  -11.7805 C   0  0  0  0  0  0  0  0  0  0  0  0
   56.3088   -3.6036  -11.0218 C   0  0  0  0  0  0  0  0  0  0  0  0
   56.1373   -4.1180   -9.7675 C   0  0  0  0  0  0  0  0  0  0  0  0
   57.1331   -4.8959   -9.2173 C   0  0  0  0  0  0  0  0  0  0  0  0
   58.2669   -5.1236   -9.9600 C   0  0  0  0  0  0  0  0  0  0  0  0
   59.3881   -5.8515   -9.6487 C   0  0  0  0  0  0  0  0  0  0  0  0
   59.8257   -6.6413   -8.4757 C   0  0  0  0  0  0  0  0  0  0  0  0
   60.8947   -7.4511   -6.5140 H   0  0  0  0  0  0  0  0  0  0  0  0
   62.5307   -6.8638   -6.6517 H   0  0  0  0  0  0  0  0  0  0  0  0
   60.0136   -4.7570  -12.5966 H   0  0  0  0  0  0  0  0  0  0  0  0
   54.6816   -3.8082   -8.8502 S   0  0  0  0  0  0  0  0  0  0  0  0
   53.5042   -4.1487   -9.6992 O   0  0  0  0  0  0  0  0  0  0  0  0
   54.6367   -2.3495   -8.5022 O   0  0  0  0  0  0  0  0  0  0  0  0
   54.7510   -4.7949   -7.4071 C   0  0  0  0  0  0  0  0  0  0  0  0
   55.6482   -4.4832   -6.4159 C   0  0  0  0  0  0  0  0  0  0  0  0
   55.7723   -5.2057   -5.2439 C   0  0  0  0  0  0  0  0  0  0  0  0
   54.9355   -6.2955   -5.0886 C   0  0  0  0  0  0  0  0  0  0  0  0
   54.0197   -6.6339   -6.0729 C   0  0  0  0  0  0  0  0  0  0  0  0
   53.9361   -5.8829   -7.2196 C   0  0  0  0  0  0  0  0  0  0  0  0
  1  2  1  0  0  0
  2  3  1  0  0  0
  3  4  1  0  0  0
  4  5  1  0  0  0
  5  6  1  0  0  0
  6  7  1  0  0  0
  7  8  2  0  0  0
  8  9  1  0  0  0
  9 10  2  0  0  0
 10 18  1  0  0  0
 18 19  2  0  0  0
 18 20  2  0  0  0
 18 21  1  0  0  0
 21 22  2  0  0  0
 22 23  1  0  0  0
 23 24  2  0  0  0
 24 25  1  0  0  0
 25 26  2  0  0  0
 10 11  1  0  0  0
 11 12  2  0  0  0
 12 13  1  0  0  0
 13 14  1  0  0  0
 14  2  1  0  0  0
 13  5  2  0  0  0
 12  7  1  0  0  0
 26 21  1  0  0  0
  1 15  1  0  0  0
  1 16  1  0  0  0
  6 17  1  0  0  0
M  END
> <minimizedAffinity>
-5.80966

> <CNNscore>
0.3612761199

> <CNNaffinity>
5.3455648422

> <CNN_VS>
1.9312249422

> <CNNaffinity_variance>
0.1020984203

$$$$
[H]c1c([H])c([H])c(S(=O)(=O)c2c([H])c([H])c3c(c2[H])c2c(n3[H])C([H])([H])C([H])([H])C([H])(N([H])[H])C2([H])[H])c([H])c1[H]


 26 29  0  0  0  0  0  0  0  0999 V2000
   57.3186   -5.7968   -7.1673 N   0  0  0  0  0  0  0  0  0  0  0  0
   56.2423   -4.8546   -7.4637 C   0  0  0  0  0  0  0  0  0  0  0  0
   56.4193   -4.3589   -8.8526 C   0  0  0  0  0  0  0  0  0  0  0  0
   55.1564   -4.0891   -9.6050 C   0  0  0  0  0  0  0  0  0  0  0  0
   53.9583   -3.9572   -8.7584 C   0  0  0  0  0  0  0  0  0  0  0  0
   52.8514   -3.2307   -8.9142 N   0  0  0  0  0  0  0  0  0  0  0  0
   52.0247   -3.4247   -7.8893 C   0  0  0  0  0  0  0  0  0  0  0  0
   50.7602   -2.9186   -7.5656 C   0  0  0  0  0  0  0  0  0  0  0  0
   50.1899   -3.3546   -6.3904 C   0  0  0  0  0  0  0  0  0  0  0  0
   50.7958   -4.2419   -5.5462 C   0  0  0  0  0  0  0  0  0  0  0  0
   52.0406   -4.7366   -5.8704 C   0  0  0  0  0  0  0  0  0  0  0  0
   52.6255   -4.3128   -7.0396 C   0  0  0  0  0  0  0  0  0  0  0  0
   53.8398   -4.6476   -7.5849 C   0  0  0  0  0  0  0  0  0  0  0  0
   54.9531   -5.5368   -7.1834 C   0  0  0  0  0  0  0  0  0  0  0  0
   57.0140   -6.4502   -6.4318 H   0  0  0  0  0  0  0  0  0  0  0  0
   58.2083   -5.3032   -6.9782 H   0  0  0  0  0  0  0  0  0  0  0  0
   52.6190   -2.5838   -9.7131 H   0  0  0  0  0  0  0  0  0  0  0  0
   50.0228   -4.7600   -4.0660 S   0  0  0  0  0  0  0  0  0  0  0  0
   48.9824   -5.7733   -4.4035 O   0  0  0  0  0  0  0  0  0  0  0  0
   49.3680   -3.5710   -3.4267 O   0  0  0  0  0  0  0  0  0  0  0  0
   51.2661   -5.4236   -3.0294 C   0  0  0  0  0  0  0  0  0  0  0  0
   51.5341   -6.7694   -3.0690 C   0  0  0  0  0  0  0  0  0  0  0  0
   52.4972   -7.3792   -2.2869 C   0  0  0  0  0  0  0  0  0  0  0  0
   53.2135   -6.5659   -1.4281 C   0  0  0  0  0  0  0  0  0  0  0  0
   52.9645   -5.2034   -1.3669 C   0  0  0  0  0  0  0  0  0  0  0  0
   51.9961   -4.6464   -2.1656 C   0  0  0  0  0  0  0  0  0  0  0  0
  1  2  1  0  0  0
  2  3  1  0  0  0
  3  4  1  0  0  0
  4  5  1  0  0  0
  5  6  1  0  0  0
  6  7  1  0  0  0
  7  8  2  0  0  0
  8  9  1  0  0  0
  9 10  2  0  0  0
 10 18  1  0  0  0
 18 19  2  0  0  0
 18 20  2  0  0  0
 18 21  1  0  0  0
 21 22  2  0  0  0
 22 23  1  0  0  0
 23 24  2  0  0  0
 24 25  1  0  0  0
 25 26  2  0  0  0
 10 11  1  0  0  0
 11 12  2  0  0  0
 12 13  1  0  0  0
 13 14  1  0  0  0
 14  2  1  0  0  0
 13  5  2  0  0  0
 12  7  1  0  0  0
 26 21  1  0  0  0
  1 15  1  0  0  0
  1 16  1  0  0  0
  6 17  1  0  0  0
M  END
> <minimizedAffinity>
-8.77778

> <CNNscore>
0.3589344919

> <CNNaffinity>
6.6838235855

> <CNN_VS>
2.3990547657

> <CNNaffinity_variance>
0.4323641658

$$$$
[H]c1c([H])c([H])c(S(=O)(=O)c2c([H])c([H])c3c(c2[H])c2c(n3[H])C([H])([H])C([H])([H])C([H])(N([H])[H])C2([H])[H])c([H])c1[H]


 26 29  0  0  0  0  0  0  0  0999 V2000
   51.7288   -2.3087   -9.3136 N   0  0  0  0  0  0  0  0  0  0  0  0
   52.9604   -2.8636   -8.7576 C   0  0  0  0  0  0  0  0  0  0  0  0
   52.6155   -3.6642   -7.5551 C   0  0  0  0  0  0  0  0  0  0  0  0
   53.4571   -4.8784   -7.3279 C   0  0  0  0  0  0  0  0  0  0  0  0
   54.7319   -4.8838   -8.0656 C   0  0  0  0  0  0  0  0  0  0  0  0
   55.9164   -5.4157   -7.7635 N   0  0  0  0  0  0  0  0  0  0  0  0
   56.7924   -5.1721   -8.7355 C   0  0  0  0  0  0  0  0  0  0  0  0
   58.1417   -5.4980   -8.9169 C   0  0  0  0  0  0  0  0  0  0  0  0
   58.7425   -5.0671  -10.0788 C   0  0  0  0  0  0  0  0  0  0  0  0
   58.0883   -4.3499  -11.0405 C   0  0  0  0  0  0  0  0  0  0  0  0
   56.7600   -4.0322  -10.8562 C   0  0  0  0  0  0  0  0  0  0  0  0
   56.1436   -4.4539   -9.7024 C   0  0  0  0  0  0  0  0  0  0  0  0
   54.8496   -4.2726   -9.2824 C   0  0  0  0  0  0  0  0  0  0  0  0
   53.6560   -3.6004   -9.8435 C   0  0  0  0  0  0  0  0  0  0  0  0
   51.8547   -2.1255  -10.3192 H   0  0  0  0  0  0  0  0  0  0  0  0
   51.3950   -1.5028   -8.7567 H   0  0  0  0  0  0  0  0  0  0  0  0
   56.1709   -5.9575   -6.8961 H   0  0  0  0  0  0  0  0  0  0  0  0
   58.9034   -3.8292  -12.4970 S   0  0  0  0  0  0  0  0  0  0  0  0
   60.1073   -4.6852  -12.6990 O   0  0  0  0  0  0  0  0  0  0  0  0
   59.3333   -2.4026  -12.3206 O   0  0  0  0  0  0  0  0  0  0  0  0
   57.7664   -3.9824  -13.8177 C   0  0  0  0  0  0  0  0  0  0  0  0
   56.7390   -4.8883  -13.7256 C   0  0  0  0  0  0  0  0  0  0  0  0
   55.7959   -5.0765  -14.7187 C   0  0  0  0  0  0  0  0  0  0  0  0
   55.9184   -4.2971  -15.8543 C   0  0  0  0  0  0  0  0  0  0  0  0
   56.9458   -3.3740  -15.9749 C   0  0  0  0  0  0  0  0  0  0  0  0
   57.8576   -3.2256  -14.9588 C   0  0  0  0  0  0  0  0  0  0  0  0
  1  2  1  0  0  0
  2  3  1  0  0  0
  3  4  1  0  0  0
  4  5  1  0  0  0
  5  6  1  0  0  0
  6  7  1  0  0  0
  7  8  2  0  0  0
  8  9  1  0  0  0
  9 10  2  0  0  0
 10 18  1  0  0  0
 18 19  2  0  0  0
 18 20  2  0  0  0
 18 21  1  0  0  0
 21 22  2  0  0  0
 22 23  1  0  0  0
 23 24  2  0  0  0
 24 25  1  0  0  0
 25 26  2  0  0  0
 10 11  1  0  0  0
 11 12  2  0  0  0
 12 13  1  0  0  0
 13 14  1  0  0  0
 14  2  1  0  0  0
 13  5  2  0  0  0
 12  7  1  0  0  0
 26 21  1  0  0  0
  1 15  1  0  0  0
  1 16  1  0  0  0
  6 17  1  0  0  0
M  END
> <minimizedAffinity>
-7.62388

> <CNNscore>
0.3576768041

> <CNNaffinity>
5.9423294067

> <CNN_VS>
2.1254334450

> <CNNaffinity_variance>
0.1498178542

$$$$
[H]c1c([H])c([H])c(S(=O)(=O)c2c([H])c([H])c3c(c2[H])c2c(n3[H])C([H])([H])C([H])([H])C([H])(N([H])[H])C2([H])[H])c([H])c1[H]


 26 29  0  0  0  0  0  0  0  0999 V2000
   55.1262   -6.2634   -4.8220 N   0  0  0  0  0  0  0  0  0  0  0  0
   55.3573   -6.1045   -6.2556 C   0  0  0  0  0  0  0  0  0  0  0  0
   54.2324   -5.3232   -6.8303 C   0  0  0  0  0  0  0  0  0  0  0  0
   54.5950   -4.4030   -7.9509 C   0  0  0  0  0  0  0  0  0  0  0  0
   55.8915   -4.6959   -8.5856 C   0  0  0  0  0  0  0  0  0  0  0  0
   56.3100   -4.5291   -9.8404 N   0  0  0  0  0  0  0  0  0  0  0  0
   57.5712   -4.9363   -9.9635 C   0  0  0  0  0  0  0  0  0  0  0  0
   58.4663   -4.9795  -11.0390 C   0  0  0  0  0  0  0  0  0  0  0  0
   59.7255   -5.4785  -10.7900 C   0  0  0  0  0  0  0  0  0  0  0  0
   60.1271   -5.9234   -9.5621 C   0  0  0  0  0  0  0  0  0  0  0  0
   59.2414   -5.8782   -8.5071 C   0  0  0  0  0  0  0  0  0  0  0  0
   57.9800   -5.3832   -8.7368 C   0  0  0  0  0  0  0  0  0  0  0  0
   56.9256   -5.2324   -7.8710 C   0  0  0  0  0  0  0  0  0  0  0  0
   56.7083   -5.5139   -6.4341 C   0  0  0  0  0  0  0  0  0  0  0  0
   56.0252   -6.4056   -4.3401 H   0  0  0  0  0  0  0  0  0  0  0  0
   54.4066   -6.9833   -4.6350 H   0  0  0  0  0  0  0  0  0  0  0  0
   55.7610   -4.1372  -10.6502 H   0  0  0  0  0  0  0  0  0  0  0  0
   61.7401   -6.5472   -9.3050 S   0  0  0  0  0  0  0  0  0  0  0  0
   62.5613   -5.4860   -8.6551 O   0  0  0  0  0  0  0  0  0  0  0  0
   62.3381   -6.8905  -10.6376 O   0  0  0  0  0  0  0  0  0  0  0  0
   61.5978   -7.9697   -8.2967 C   0  0  0  0  0  0  0  0  0  0  0  0
   61.7255   -7.8505   -6.9351 C   0  0  0  0  0  0  0  0  0  0  0  0
   61.6280   -8.9186   -6.0628 C   0  0  0  0  0  0  0  0  0  0  0  0
   61.3887  -10.1616   -6.6193 C   0  0  0  0  0  0  0  0  0  0  0  0
   61.2552  -10.3120   -7.9911 C   0  0  0  0  0  0  0  0  0  0  0  0
   61.3608   -9.2182   -8.8147 C   0  0  0  0  0  0  0  0  0  0  0  0
  1  2  1  0  0  0
  2  3  1  0  0  0
  3  4  1  0  0  0
  4  5  1  0  0  0
  5  6  1  0  0  0
  6  7  1  0  0  0
  7  8  2  0  0  0
  8  9  1  0  0  0
  9 10  2  0  0  0
 10 18  1  0  0  0
 18 19  2  0  0  0
 18 20  2  0  0  0
 18 21  1  0  0  0
 21 22  2  0  0  0
 22 23  1  0  0  0
 23 24  2  0  0  0
 24 25  1  0  0  0
 25 26  2  0  0  0
 10 11  1  0  0  0
 11 12  2  0  0  0
 12 13  1  0  0  0
 13 14  1  0  0  0
 14  2  1  0  0  0
 13  5  2  0  0  0
 12  7  1  0  0  0
 26 21  1  0  0  0
  1 15  1  0  0  0
  1 16  1  0  0  0
  6 17  1  0  0  0
M  END
> <minimizedAffinity>
-6.02153

> <CNNscore>
0.2817573845

> <CNNaffinity>
5.1482172012

> <CNN_VS>
1.4505481720

> <CNNaffinity_variance>
0.4160315096

$$$$
[H]c1c([H])c([H])c(S(=O)(=O)c2c([H])c([H])c3c(c2[H])c2c(n3[H])C([H])([H])C([H])([H])C([H])(N([H])[H])C2([H])[H])c([H])c1[H]


 26 29  0  0  0  0  0  0  0  0999 V2000
   60.9505   -9.3854   -2.2463 N   0  0  0  0  0  0  0  0  0  0  0  0
   61.6746   -8.3348   -2.9575 C   0  0  0  0  0  0  0  0  0  0  0  0
   62.9116   -8.0188   -2.1985 C   0  0  0  0  0  0  0  0  0  0  0  0
   64.0990   -7.6509   -3.0286 C   0  0  0  0  0  0  0  0  0  0  0  0
   63.7786   -7.2597   -4.4119 C   0  0  0  0  0  0  0  0  0  0  0  0
   64.3753   -6.4021   -5.2401 N   0  0  0  0  0  0  0  0  0  0  0  0
   63.7347   -6.3662   -6.4063 C   0  0  0  0  0  0  0  0  0  0  0  0
   63.9388   -5.6522   -7.5931 C   0  0  0  0  0  0  0  0  0  0  0  0
   63.0513   -5.8755   -8.6222 C   0  0  0  0  0  0  0  0  0  0  0  0
   62.0026   -6.7468   -8.5331 C   0  0  0  0  0  0  0  0  0  0  0  0
   61.8069   -7.4468   -7.3621 C   0  0  0  0  0  0  0  0  0  0  0  0
   62.6828   -7.2369   -6.3239 C   0  0  0  0  0  0  0  0  0  0  0  0
   62.7098   -7.7984   -5.0718 C   0  0  0  0  0  0  0  0  0  0  0  0
   61.8768   -8.7911   -4.3564 C   0  0  0  0  0  0  0  0  0  0  0  0
   60.3587   -9.9071   -2.9084 H   0  0  0  0  0  0  0  0  0  0  0  0
   60.4585   -9.0078   -1.4178 H   0  0  0  0  0  0  0  0  0  0  0  0
   65.2296   -5.8162   -5.0464 H   0  0  0  0  0  0  0  0  0  0  0  0
   60.9071   -6.9896   -9.8738 S   0  0  0  0  0  0  0  0  0  0  0  0
   60.6076   -8.4461   -9.9842 O   0  0  0  0  0  0  0  0  0  0  0  0
   61.5802   -6.5252  -11.1317 O   0  0  0  0  0  0  0  0  0  0  0  0
   59.4664   -6.0511   -9.5507 C   0  0  0  0  0  0  0  0  0  0  0  0
   58.7634   -5.5073  -10.5970 C   0  0  0  0  0  0  0  0  0  0  0  0
   57.6162   -4.7530  -10.4355 C   0  0  0  0  0  0  0  0  0  0  0  0
   57.1763   -4.5516   -9.1401 C   0  0  0  0  0  0  0  0  0  0  0  0
   57.8661   -5.0888   -8.0641 C   0  0  0  0  0  0  0  0  0  0  0  0
   59.0014   -5.8312   -8.2786 C   0  0  0  0  0  0  0  0  0  0  0  0
  1  2  1  0  0  0
  2  3  1  0  0  0
  3  4  1  0  0  0
  4  5  1  0  0  0
  5  6  1  0  0  0
  6  7  1  0  0  0
  7  8  2  0  0  0
  8  9  1  0  0  0
  9 10  2  0  0  0
 10 18  1  0  0  0
 18 19  2  0  0  0
 18 20  2  0  0  0
 18 21  1  0  0  0
 21 22  2  0  0  0
 22 23  1  0  0  0
 23 24  2  0  0  0
 24 25  1  0  0  0
 25 26  2  0  0  0
 10 11  1  0  0  0
 11 12  2  0  0  0
 12 13  1  0  0  0
 13 14  1  0  0  0
 14  2  1  0  0  0
 13  5  2  0  0  0
 12  7  1  0  0  0
 26 21  1  0  0  0
  1 15  1  0  0  0
  1 16  1  0  0  0
  6 17  1  0  0  0
M  END
> <minimizedAffinity>
-5.08483

> <CNNscore>
0.2812202573

> <CNNaffinity>
4.2120890617

> <CNN_VS>
1.1845247746

> <CNNaffinity_variance>
0.3592630327

$$$$
[H]c1c([H])c(OC([H])([H])[H])c2c(c1[H])[C@]([H])(C([H])([H])N(C([H])([H])[H])C([H])([H])C([H])([H])c1c([H])c([H])c3c(c1[H])C([H])([H])N(S(=O)(=O)C([H])([H])[H])C3([H])[H])C([H])([H])C([H])([H])C2([H])[H]


 30 33  0  0  0  0  0  0  0  0999 V2000
   53.9901   -6.5013   -2.5148 N   0  0  0  0  0  0  0  0  0  0  0  0
   54.0411   -5.2858   -1.8298 C   0  0  0  0  0  0  0  0  0  0  0  0
   52.8331   -6.9637   -3.1139 C   0  0  0  0  0  0  0  0  0  0  0  0
   50.0530   -3.9815   -5.8409 C   0  0  0  0  0  0  0  0  0  0  0  0
   49.2937   -3.6763   -4.7188 C   0  0  0  0  0  0  0  0  0  0  0  0
   49.6375   -4.2811   -3.5077 C   0  0  0  0  0  0  0  0  0  0  0  0
   50.6989   -5.1649   -3.3899 C   0  0  0  0  0  0  0  0  0  0  0  0
   51.4541   -5.4681   -4.5093 C   0  0  0  0  0  0  0  0  0  0  0  0
   51.0983   -4.8626   -5.6850 C   0  0  0  0  0  0  0  0  0  0  0  0
   51.9870   -5.2210   -6.8528 C   0  0  0  0  0  0  0  0  0  0  0  0
   53.4135   -4.9864   -6.3744 C   0  0  0  0  0  0  0  0  0  0  0  0
   53.7559   -5.9009   -5.2212 C   0  0  0  0  0  0  0  0  0  0  0  0
   52.5788   -6.4245   -4.4897 C   0  0  0  0  0  0  0  0  0  0  0  0
   50.0669   -2.0744   -7.4022 C   0  0  0  0  0  0  0  0  0  0  0  0
   49.7883   -3.4267   -7.1034 O   0  0  0  0  0  0  0  0  0  0  0  0
   55.1220   -7.3508   -2.4726 C   0  0  0  0  0  0  0  0  0  0  0  0
   56.4083   -6.8080   -2.9991 C   0  0  0  0  0  0  0  0  0  0  0  0
   57.5209   -7.8141   -2.8405 C   0  0  0  0  0  0  0  0  0  0  0  0
   57.5243   -8.8037   -1.8874 C   0  0  0  0  0  0  0  0  0  0  0  0
   58.5563   -9.7004   -1.7501 C   0  0  0  0  0  0  0  0  0  0  0  0
   59.6671   -9.6446   -2.5882 C   0  0  0  0  0  0  0  0  0  0  0  0
   59.6734   -8.6670   -3.5364 C   0  0  0  0  0  0  0  0  0  0  0  0
   58.6191   -7.7534   -3.6751 C   0  0  0  0  0  0  0  0  0  0  0  0
   60.9319   -8.7594   -4.3237 C   0  0  0  0  0  0  0  0  0  0  0  0
   61.5397   -9.9706   -3.8742 N   0  0  0  0  0  0  0  0  0  0  0  0
   60.9005  -10.4431   -2.6928 C   0  0  0  0  0  0  0  0  0  0  0  0
   61.4653  -11.2228   -5.0612 S   0  0  0  0  0  0  0  0  0  0  0  0
   61.1528  -10.5712   -6.6773 C   0  0  0  0  0  0  0  0  0  0  0  0
   62.7762  -11.9542   -5.0222 O   0  0  0  0  0  0  0  0  0  0  0  0
   60.4138  -12.2310   -4.6557 O   0  0  0  0  0  0  0  0  0  0  0  0
 14 15  1  0  0  0
 15  4  1  0  0  0
  4  5  2  0  0  0
  5  6  1  0  0  0
  6  7  2  0  0  0
  7  8  1  0  0  0
  8  9  2  0  0  0
  9 10  1  0  0  0
 10 11  1  0  0  0
 11 12  1  0  0  0
 12 13  1  0  0  0
 13  3  1  0  0  0
  3  1  1  0  0  0
  1  2  1  0  0  0
  1 16  1  0  0  0
 16 17  1  0  0  0
 17 18  1  0  0  0
 18 19  2  0  0  0
 19 20  1  0  0  0
 20 21  2  0  0  0
 21 22  1  0  0  0
 22 23  2  0  0  0
 22 24  1  0  0  0
 24 25  1  0  0  0
 25 27  1  0  0  0
 27 28  1  0  0  0
 27 29  2  0  0  0
 27 30  2  0  0  0
 25 26  1  0  0  0
  9  4  1  0  0  0
 23 18  1  0  0  0
 13  8  1  0  0  0
 26 21  1  0  0  0
M  END
> <minimizedAffinity>
-7.01403

> <CNNscore>
0.3983713090

> <CNNaffinity>
6.0869593620

> <CNN_VS>
2.4248700142

> <CNNaffinity_variance>
0.0362005606

$$$$
[H]c1c([H])c(OC([H])([H])[H])c2c(c1[H])[C@]([H])(C([H])([H])N(C([H])([H])[H])C([H])([H])C([H])([H])c1c([H])c([H])c3c(c1[H])C([H])([H])N(S(=O)(=O)C([H])([H])[H])C3([H])[H])C([H])([H])C([H])([H])C2([H])[H]


 30 33  0  0  0  0  0  0  0  0999 V2000
   55.9098   -6.0546   -4.9943 N   0  0  0  0  0  0  0  0  0  0  0  0
   55.6643   -7.3435   -5.4715 C   0  0  0  0  0  0  0  0  0  0  0  0
   56.6210   -5.1199   -5.7237 C   0  0  0  0  0  0  0  0  0  0  0  0
   56.7027   -4.4130  -10.5768 C   0  0  0  0  0  0  0  0  0  0  0  0
   57.9582   -5.0043  -10.6338 C   0  0  0  0  0  0  0  0  0  0  0  0
   58.5249   -5.4604   -9.4415 C   0  0  0  0  0  0  0  0  0  0  0  0
   57.8836   -5.3444   -8.2181 C   0  0  0  0  0  0  0  0  0  0  0  0
   56.6328   -4.7545   -8.1633 C   0  0  0  0  0  0  0  0  0  0  0  0
   56.0974   -4.3155   -9.3449 C   0  0  0  0  0  0  0  0  0  0  0  0
   54.7199   -3.7111   -9.2070 C   0  0  0  0  0  0  0  0  0  0  0  0
   53.8979   -4.7286   -8.4272 C   0  0  0  0  0  0  0  0  0  0  0  0
   54.4645   -4.9360   -7.0417 C   0  0  0  0  0  0  0  0  0  0  0  0
   55.8892   -4.5539   -6.9037 C   0  0  0  0  0  0  0  0  0  0  0  0
   56.6976   -3.8186  -12.9688 C   0  0  0  0  0  0  0  0  0  0  0  0
   56.0485   -3.9224  -11.7183 O   0  0  0  0  0  0  0  0  0  0  0  0
   55.5399   -5.7428   -3.6638 C   0  0  0  0  0  0  0  0  0  0  0  0
   54.4859   -6.5864   -3.0282 C   0  0  0  0  0  0  0  0  0  0  0  0
   53.1102   -6.0517   -3.3390 C   0  0  0  0  0  0  0  0  0  0  0  0
   52.2310   -5.6056   -2.3821 C   0  0  0  0  0  0  0  0  0  0  0  0
   50.9756   -5.1371   -2.6862 C   0  0  0  0  0  0  0  0  0  0  0  0
   50.5299   -5.0928   -4.0047 C   0  0  0  0  0  0  0  0  0  0  0  0
   51.3940   -5.5330   -4.9609 C   0  0  0  0  0  0  0  0  0  0  0  0
   52.6747   -6.0101   -4.6486 C   0  0  0  0  0  0  0  0  0  0  0  0
   50.7455   -5.4179   -6.2946 C   0  0  0  0  0  0  0  0  0  0  0  0
   49.5338   -4.7084   -6.0363 N   0  0  0  0  0  0  0  0  0  0  0  0
   49.2740   -4.6539   -4.6372 C   0  0  0  0  0  0  0  0  0  0  0  0
   49.5798   -3.0897   -6.6363 S   0  0  0  0  0  0  0  0  0  0  0  0
   51.1525   -2.7042   -7.3518 C   0  0  0  0  0  0  0  0  0  0  0  0
   48.4817   -2.9581   -7.6521 O   0  0  0  0  0  0  0  0  0  0  0  0
   49.2290   -2.1343   -5.5179 O   0  0  0  0  0  0  0  0  0  0  0  0
 14 15  1  0  0  0
 15  4  1  0  0  0
  4  5  2  0  0  0
  5  6  1  0  0  0
  6  7  2  0  0  0
  7  8  1  0  0  0
  8  9  2  0  0  0
  9 10  1  0  0  0
 10 11  1  0  0  0
 11 12  1  0  0  0
 12 13  1  0  0  0
 13  3  1  0  0  0
  3  1  1  0  0  0
  1  2  1  0  0  0
  1 16  1  0  0  0
 16 17  1  0  0  0
 17 18  1  0  0  0
 18 19  2  0  0  0
 19 20  1  0  0  0
 20 21  2  0  0  0
 21 22  1  0  0  0
 22 23  2  0  0  0
 22 24  1  0  0  0
 24 25  1  0  0  0
 25 27  1  0  0  0
 27 28  1  0  0  0
 27 29  2  0  0  0
 27 30  2  0  0  0
 25 26  1  0  0  0
  9  4  1  0  0  0
 23 18  1  0  0  0
 13  8  1  0  0  0
 26 21  1  0  0  0
M  END
> <minimizedAffinity>
-8.56762

> <CNNscore>
0.3907269835

> <CNNaffinity>
7.0049500465

> <CNN_VS>
2.7370231152

> <CNNaffinity_variance>
0.2417487204

$$$$
[H]c1c([H])c(OC([H])([H])[H])c2c(c1[H])[C@]([H])(C([H])([H])N(C([H])([H])[H])C([H])([H])C([H])([H])c1c([H])c([H])c3c(c1[H])C([H])([H])N(S(=O)(=O)C([H])([H])[H])C3([H])[H])C([H])([H])C([H])([H])C2([H])[H]


 30 33  0  0  0  0  0  0  0  0999 V2000
   54.0071   -4.3731  -10.9344 N   0  0  0  0  0  0  0  0  0  0  0  0
   52.6970   -4.2555  -10.4662 C   0  0  0  0  0  0  0  0  0  0  0  0
   54.3291   -5.1292  -12.0462 C   0  0  0  0  0  0  0  0  0  0  0  0
   59.1608   -4.3091  -12.2494 C   0  0  0  0  0  0  0  0  0  0  0  0
   59.2927   -4.8150  -10.9627 C   0  0  0  0  0  0  0  0  0  0  0  0
   58.1410   -5.2596  -10.3096 C   0  0  0  0  0  0  0  0  0  0  0  0
   56.8859   -5.2137  -10.8961 C   0  0  0  0  0  0  0  0  0  0  0  0
   56.7563   -4.7089  -12.1782 C   0  0  0  0  0  0  0  0  0  0  0  0
   57.8994   -4.2795  -12.7984 C   0  0  0  0  0  0  0  0  0  0  0  0
   57.6805   -3.7705  -14.2037 C   0  0  0  0  0  0  0  0  0  0  0  0
   56.8889   -4.8572  -14.9187 C   0  0  0  0  0  0  0  0  0  0  0  0
   55.5378   -5.0580  -14.2724 C   0  0  0  0  0  0  0  0  0  0  0  0
   55.4579   -4.5862  -12.8703 C   0  0  0  0  0  0  0  0  0  0  0  0
   61.5730   -3.8567  -12.4765 C   0  0  0  0  0  0  0  0  0  0  0  0
   60.2569   -3.8371  -12.9894 O   0  0  0  0  0  0  0  0  0  0  0  0
   55.0550   -3.8150  -10.1631 C   0  0  0  0  0  0  0  0  0  0  0  0
   54.6750   -3.0499   -8.9397 C   0  0  0  0  0  0  0  0  0  0  0  0
   54.6604   -3.9477   -7.7277 C   0  0  0  0  0  0  0  0  0  0  0  0
   53.6776   -4.8744   -7.4767 C   0  0  0  0  0  0  0  0  0  0  0  0
   53.6755   -5.6715   -6.3575 C   0  0  0  0  0  0  0  0  0  0  0  0
   54.6901   -5.5732   -5.4087 C   0  0  0  0  0  0  0  0  0  0  0  0
   55.6691   -4.6572   -5.6483 C   0  0  0  0  0  0  0  0  0  0  0  0
   55.6698   -3.8454   -6.7912 C   0  0  0  0  0  0  0  0  0  0  0  0
   56.6520   -4.6909   -4.5324 C   0  0  0  0  0  0  0  0  0  0  0  0
   56.2567   -5.8176   -3.7495 N   0  0  0  0  0  0  0  0  0  0  0  0
   54.9644   -6.2702   -4.1404 C   0  0  0  0  0  0  0  0  0  0  0  0
   57.3563   -7.1406   -3.9006 S   0  0  0  0  0  0  0  0  0  0  0  0
   58.0219   -7.2514   -5.5372 C   0  0  0  0  0  0  0  0  0  0  0  0
   58.4480   -6.9321   -2.8907 O   0  0  0  0  0  0  0  0  0  0  0  0
   56.6553   -8.4186   -3.4981 O   0  0  0  0  0  0  0  0  0  0  0  0
 14 15  1  0  0  0
 15  4  1  0  0  0
  4  5  2  0  0  0
  5  6  1  0  0  0
  6  7  2  0  0  0
  7  8  1  0  0  0
  8  9  2  0  0  0
  9 10  1  0  0  0
 10 11  1  0  0  0
 11 12  1  0  0  0
 12 13  1  0  0  0
 13  3  1  0  0  0
  3  1  1  0  0  0
  1  2  1  0  0  0
  1 16  1  0  0  0
 16 17  1  0  0  0
 17 18  1  0  0  0
 18 19  2  0  0  0
 19 20  1  0  0  0
 20 21  2  0  0  0
 21 22  1  0  0  0
 22 23  2  0  0  0
 22 24  1  0  0  0
 24 25  1  0  0  0
 25 27  1  0  0  0
 27 28  1  0  0  0
 27 29  2  0  0  0
 27 30  2  0  0  0
 25 26  1  0  0  0
  9  4  1  0  0  0
 23 18  1  0  0  0
 13  8  1  0  0  0
 26 21  1  0  0  0
M  END
> <minimizedAffinity>
4.64343

> <CNNscore>
0.3328613043

> <CNNaffinity>
6.0120577812

> <CNN_VS>
2.0011813641

> <CNNaffinity_variance>
0.4759988785

$$$$
[H]c1c([H])c(OC([H])([H])[H])c2c(c1[H])[C@]([H])(C([H])([H])N(C([H])([H])[H])C([H])([H])C([H])([H])c1c([H])c([H])c3c(c1[H])C([H])([H])N(S(=O)(=O)C([H])([H])[H])C3([H])[H])C([H])([H])C([H])([H])C2([H])[H]


 30 33  0  0  0  0  0  0  0  0999 V2000
   52.3502   -6.1325   -2.3079 N   0  0  0  0  0  0  0  0  0  0  0  0
   52.2767   -4.9802   -1.5230 C   0  0  0  0  0  0  0  0  0  0  0  0
   51.2794   -6.5867   -3.0554 C   0  0  0  0  0  0  0  0  0  0  0  0
   49.4787   -3.2276   -6.1430 C   0  0  0  0  0  0  0  0  0  0  0  0
   48.7455   -2.6746   -5.1011 C   0  0  0  0  0  0  0  0  0  0  0  0
   48.8558   -3.2583   -3.8370 C   0  0  0  0  0  0  0  0  0  0  0  0
   49.6634   -4.3577   -3.5907 C   0  0  0  0  0  0  0  0  0  0  0  0
   50.3929   -4.9077   -4.6302 C   0  0  0  0  0  0  0  0  0  0  0  0
   50.2689   -4.3181   -5.8601 C   0  0  0  0  0  0  0  0  0  0  0  0
   51.1175   -4.9564   -6.9346 C   0  0  0  0  0  0  0  0  0  0  0  0
   52.5251   -5.0333   -6.3588 C   0  0  0  0  0  0  0  0  0  0  0  0
   52.5631   -5.9208   -5.1363 C   0  0  0  0  0  0  0  0  0  0  0  0
   51.2505   -6.0992   -4.4730 C   0  0  0  0  0  0  0  0  0  0  0  0
   50.2270   -1.6147   -7.8498 C   0  0  0  0  0  0  0  0  0  0  0  0
   49.4363   -2.7147   -7.4494 O   0  0  0  0  0  0  0  0  0  0  0  0
   53.5124   -6.9367   -2.2238 C   0  0  0  0  0  0  0  0  0  0  0  0
   54.8297   -6.2374   -2.1769 C   0  0  0  0  0  0  0  0  0  0  0  0
   55.4344   -6.1381   -3.5552 C   0  0  0  0  0  0  0  0  0  0  0  0
   55.9174   -7.2167   -4.2558 C   0  0  0  0  0  0  0  0  0  0  0  0
   56.4792   -7.1013   -5.5044 C   0  0  0  0  0  0  0  0  0  0  0  0
   56.5859   -5.8606   -6.1277 C   0  0  0  0  0  0  0  0  0  0  0  0
   56.1100   -4.7849   -5.4413 C   0  0  0  0  0  0  0  0  0  0  0  0
   55.5366   -4.9049   -4.1676 C   0  0  0  0  0  0  0  0  0  0  0  0
   56.3155   -3.5571   -6.2553 C   0  0  0  0  0  0  0  0  0  0  0  0
   56.7656   -4.0447   -7.5195 N   0  0  0  0  0  0  0  0  0  0  0  0
   57.1205   -5.4207   -7.4279 C   0  0  0  0  0  0  0  0  0  0  0  0
   55.5662   -3.8814   -8.7513 S   0  0  0  0  0  0  0  0  0  0  0  0
   56.2820   -3.9364  -10.3695 C   0  0  0  0  0  0  0  0  0  0  0  0
   54.5782   -4.9965   -8.5637 O   0  0  0  0  0  0  0  0  0  0  0  0
   54.7951   -2.5999   -8.5281 O   0  0  0  0  0  0  0  0  0  0  0  0
 14 15  1  0  0  0
 15  4  1  0  0  0
  4  5  2  0  0  0
  5  6  1  0  0  0
  6  7  2  0  0  0
  7  8  1  0  0  0
  8  9  2  0  0  0
  9 10  1  0  0  0
 10 11  1  0  0  0
 11 12  1  0  0  0
 12 13  1  0  0  0
 13  3  1  0  0  0
  3  1  1  0  0  0
  1  2  1  0  0  0
  1 16  1  0  0  0
 16 17  1  0  0  0
 17 18  1  0  0  0
 18 19  2  0  0  0
 19 20  1  0  0  0
 20 21  2  0  0  0
 21 22  1  0  0  0
 22 23  2  0  0  0
 22 24  1  0  0  0
 24 25  1  0  0  0
 25 27  1  0  0  0
 27 28  1  0  0  0
 27 29  2  0  0  0
 27 30  2  0  0  0
 25 26  1  0  0  0
  9  4  1  0  0  0
 23 18  1  0  0  0
 13  8  1  0  0  0
 26 21  1  0  0  0
M  END
> <minimizedAffinity>
-8.10274

> <CNNscore>
0.2670530081

> <CNNaffinity>
7.0056486130

> <CNN_VS>
1.8708795309

> <CNNaffinity_variance>
0.3432587683

$$$$
[H]c1c([H])c(OC([H])([H])[H])c2c(c1[H])[C@]([H])(C([H])([H])N(C([H])([H])[H])C([H])([H])C([H])([H])c1c([H])c([H])c3c(c1[H])C([H])([H])N(S(=O)(=O)C([H])([H])[H])C3([H])[H])C([H])([H])C([H])([H])C2([H])[H]


 30 33  0  0  0  0  0  0  0  0999 V2000
   54.1264   -3.3920   -8.4080 N   0  0  0  0  0  0  0  0  0  0  0  0
   53.9974   -2.0264   -8.6684 C   0  0  0  0  0  0  0  0  0  0  0  0
   53.0488   -4.2571   -8.4499 C   0  0  0  0  0  0  0  0  0  0  0  0
   49.6117   -3.6457   -5.0045 C   0  0  0  0  0  0  0  0  0  0  0  0
   49.0460   -2.6274   -5.7608 C   0  0  0  0  0  0  0  0  0  0  0  0
   49.6435   -2.3052   -6.9814 C   0  0  0  0  0  0  0  0  0  0  0  0
   50.7684   -2.9604   -7.4576 C   0  0  0  0  0  0  0  0  0  0  0  0
   51.3309   -3.9746   -6.7023 C   0  0  0  0  0  0  0  0  0  0  0  0
   50.7275   -4.2728   -5.5096 C   0  0  0  0  0  0  0  0  0  0  0  0
   51.3815   -5.4086   -4.7585 C   0  0  0  0  0  0  0  0  0  0  0  0
   51.5051   -6.5496   -5.7594 C   0  0  0  0  0  0  0  0  0  0  0  0
   52.4036   -6.1650   -6.9119 C   0  0  0  0  0  0  0  0  0  0  0  0
   52.5486   -4.7038   -7.1088 C   0  0  0  0  0  0  0  0  0  0  0  0
   47.7011   -4.2301   -3.5612 C   0  0  0  0  0  0  0  0  0  0  0  0
   49.0867   -4.0440   -3.7645 O   0  0  0  0  0  0  0  0  0  0  0  0
   55.3740   -3.8792   -7.9490 C   0  0  0  0  0  0  0  0  0  0  0  0
   55.8953   -5.1297   -8.5742 C   0  0  0  0  0  0  0  0  0  0  0  0
   56.6386   -4.8227   -9.8503 C   0  0  0  0  0  0  0  0  0  0  0  0
   57.9520   -5.1617  -10.0685 C   0  0  0  0  0  0  0  0  0  0  0  0
   58.6149   -4.8580  -11.2331 C   0  0  0  0  0  0  0  0  0  0  0  0
   57.9715   -4.1792  -12.2648 C   0  0  0  0  0  0  0  0  0  0  0  0
   56.6692   -3.8384  -12.0583 C   0  0  0  0  0  0  0  0  0  0  0  0
   55.9945   -4.1499  -10.8695 C   0  0  0  0  0  0  0  0  0  0  0  0
   56.1573   -3.1200  -13.2558 C   0  0  0  0  0  0  0  0  0  0  0  0
   57.2044   -3.2492  -14.2177 N   0  0  0  0  0  0  0  0  0  0  0  0
   58.3964   -3.7231  -13.5995 C   0  0  0  0  0  0  0  0  0  0  0  0
   56.7934   -4.3377  -15.4939 S   0  0  0  0  0  0  0  0  0  0  0  0
   55.5939   -3.6344  -16.5896 C   0  0  0  0  0  0  0  0  0  0  0  0
   58.0619   -4.6663  -16.2272 O   0  0  0  0  0  0  0  0  0  0  0  0
   56.3067   -5.6402  -14.8995 O   0  0  0  0  0  0  0  0  0  0  0  0
 14 15  1  0  0  0
 15  4  1  0  0  0
  4  5  2  0  0  0
  5  6  1  0  0  0
  6  7  2  0  0  0
  7  8  1  0  0  0
  8  9  2  0  0  0
  9 10  1  0  0  0
 10 11  1  0  0  0
 11 12  1  0  0  0
 12 13  1  0  0  0
 13  3  1  0  0  0
  3  1  1  0  0  0
  1  2  1  0  0  0
  1 16  1  0  0  0
 16 17  1  0  0  0
 17 18  1  0  0  0
 18 19  2  0  0  0
 19 20  1  0  0  0
 20 21  2  0  0  0
 21 22  1  0  0  0
 22 23  2  0  0  0
 22 24  1  0  0  0
 24 25  1  0  0  0
 25 27  1  0  0  0
 27 28  1  0  0  0
 27 29  2  0  0  0
 27 30  2  0  0  0
 25 26  1  0  0  0
  9  4  1  0  0  0
 23 18  1  0  0  0
 13  8  1  0  0  0
 26 21  1  0  0  0
M  END
> <minimizedAffinity>
-8.87525

> <CNNscore>
0.2543385923

> <CNNaffinity>
6.5558981895

> <CNN_VS>
1.6674178839

> <CNNaffinity_variance>
0.1896785796

$$$$
[H]c1c([H])c(OC([H])([H])[H])c2c(c1[H])[C@]([H])(C([H])([H])N(C([H])([H])[H])C([H])([H])C([H])([H])c1c([H])c([H])c3c(c1[H])C([H])([H])N(S(=O)(=O)C([H])([H])[H])C3([H])[H])C([H])([H])C([H])([H])C2([H])[H]


 30 33  0  0  0  0  0  0  0  0999 V2000
   53.5020   -3.4936   -8.9796 N   0  0  0  0  0  0  0  0  0  0  0  0
   52.6851   -2.3718   -8.8260 C   0  0  0  0  0  0  0  0  0  0  0  0
   53.0326   -4.7804   -8.7920 C   0  0  0  0  0  0  0  0  0  0  0  0
   52.8264   -5.9015   -4.0213 C   0  0  0  0  0  0  0  0  0  0  0  0
   54.1974   -6.1236   -4.0224 C   0  0  0  0  0  0  0  0  0  0  0  0
   54.8916   -5.9443   -5.2209 C   0  0  0  0  0  0  0  0  0  0  0  0
   54.2654   -5.5563   -6.3951 C   0  0  0  0  0  0  0  0  0  0  0  0
   52.8991   -5.3358   -6.3922 C   0  0  0  0  0  0  0  0  0  0  0  0
   52.2401   -5.5175   -5.2054 C   0  0  0  0  0  0  0  0  0  0  0  0
   50.7589   -5.2296   -5.2762 C   0  0  0  0  0  0  0  0  0  0  0  0
   50.6351   -3.8534   -5.9162 C   0  0  0  0  0  0  0  0  0  0  0  0
   51.1837   -3.8589   -7.3242 C   0  0  0  0  0  0  0  0  0  0  0  0
   52.1398   -4.9565   -7.6002 C   0  0  0  0  0  0  0  0  0  0  0  0
   52.2325   -5.2605   -1.7167 C   0  0  0  0  0  0  0  0  0  0  0  0
   52.0392   -6.0550   -2.8687 O   0  0  0  0  0  0  0  0  0  0  0  0
   54.8875   -3.2983   -9.1960 C   0  0  0  0  0  0  0  0  0  0  0  0
   55.5646   -4.2025  -10.1709 C   0  0  0  0  0  0  0  0  0  0  0  0
   56.8670   -4.7174   -9.6107 C   0  0  0  0  0  0  0  0  0  0  0  0
   57.1118   -4.8719   -8.2676 C   0  0  0  0  0  0  0  0  0  0  0  0
   58.3119   -5.3279   -7.7780 C   0  0  0  0  0  0  0  0  0  0  0  0
   59.3545   -5.6604   -8.6391 C   0  0  0  0  0  0  0  0  0  0  0  0
   59.1220   -5.5107   -9.9727 C   0  0  0  0  0  0  0  0  0  0  0  0
   57.8965   -5.0458  -10.4702 C   0  0  0  0  0  0  0  0  0  0  0  0
   60.3417   -5.9040  -10.7276 C   0  0  0  0  0  0  0  0  0  0  0  0
   61.2043   -6.4619   -9.7360 N   0  0  0  0  0  0  0  0  0  0  0  0
   60.7220   -6.1661   -8.4293 C   0  0  0  0  0  0  0  0  0  0  0  0
   61.3469   -8.1769   -9.8792 S   0  0  0  0  0  0  0  0  0  0  0  0
   61.7351   -8.9308   -8.3252 C   0  0  0  0  0  0  0  0  0  0  0  0
   60.0409   -8.6911  -10.4132 O   0  0  0  0  0  0  0  0  0  0  0  0
   62.3840   -8.5040  -10.9300 O   0  0  0  0  0  0  0  0  0  0  0  0
 14 15  1  0  0  0
 15  4  1  0  0  0
  4  5  2  0  0  0
  5  6  1  0  0  0
  6  7  2  0  0  0
  7  8  1  0  0  0
  8  9  2  0  0  0
  9 10  1  0  0  0
 10 11  1  0  0  0
 11 12  1  0  0  0
 12 13  1  0  0  0
 13  3  1  0  0  0
  3  1  1  0  0  0
  1  2  1  0  0  0
  1 16  1  0  0  0
 16 17  1  0  0  0
 17 18  1  0  0  0
 18 19  2  0  0  0
 19 20  1  0  0  0
 20 21  2  0  0  0
 21 22  1  0  0  0
 22 23  2  0  0  0
 22 24  1  0  0  0
 24 25  1  0  0  0
 25 27  1  0  0  0
 27 28  1  0  0  0
 27 29  2  0  0  0
 27 30  2  0  0  0
 25 26  1  0  0  0
  9  4  1  0  0  0
 23 18  1  0  0  0
 13  8  1  0  0  0
 26 21  1  0  0  0
M  END
> <minimizedAffinity>
-7.70821

> <CNNscore>
0.2520942092

> <CNNaffinity>
6.5809197426

> <CNN_VS>
1.6590117216

> <CNNaffinity_variance>
0.0502638109

$$$$
[H]c1c([H])c(OC([H])([H])[H])c2c(c1[H])[C@]([H])(C([H])([H])N(C([H])([H])[H])C([H])([H])C([H])([H])c1c([H])c([H])c3c(c1[H])C([H])([H])N(S(=O)(=O)C([H])([H])[H])C3([H])[H])C([H])([H])C([H])([H])C2([H])[H]


 30 33  0  0  0  0  0  0  0  0999 V2000
   53.3884   -3.5241   -8.7446 N   0  0  0  0  0  0  0  0  0  0  0  0
   52.5020   -2.4454   -8.7404 C   0  0  0  0  0  0  0  0  0  0  0  0
   53.0138   -4.7896   -8.3326 C   0  0  0  0  0  0  0  0  0  0  0  0
   51.8322   -5.6806   -3.6562 C   0  0  0  0  0  0  0  0  0  0  0  0
   50.5135   -5.3446   -3.9337 C   0  0  0  0  0  0  0  0  0  0  0  0
   50.1923   -4.9651   -5.2389 C   0  0  0  0  0  0  0  0  0  0  0  0
   51.1345   -4.9138   -6.2543 C   0  0  0  0  0  0  0  0  0  0  0  0
   52.4482   -5.2485   -5.9758 C   0  0  0  0  0  0  0  0  0  0  0  0
   52.7389   -5.6177   -4.6894 C   0  0  0  0  0  0  0  0  0  0  0  0
   54.1851   -5.9959   -4.4719 C   0  0  0  0  0  0  0  0  0  0  0  0
   54.5156   -7.0098   -5.5590 C   0  0  0  0  0  0  0  0  0  0  0  0
   54.3894   -6.3925   -6.9325 C   0  0  0  0  0  0  0  0  0  0  0  0
   53.5274   -5.1886   -6.9816 C   0  0  0  0  0  0  0  0  0  0  0  0
   52.6113   -5.1363   -1.3821 C   0  0  0  0  0  0  0  0  0  0  0  0
   52.2561   -6.0744   -2.3768 O   0  0  0  0  0  0  0  0  0  0  0  0
   54.7501   -3.2809   -9.0465 C   0  0  0  0  0  0  0  0  0  0  0  0
   55.3986   -4.1671  -10.0568 C   0  0  0  0  0  0  0  0  0  0  0  0
   56.7285   -4.6711   -9.5543 C   0  0  0  0  0  0  0  0  0  0  0  0
   57.0314   -4.8279   -8.2234 C   0  0  0  0  0  0  0  0  0  0  0  0
   58.2556   -5.2738   -7.7868 C   0  0  0  0  0  0  0  0  0  0  0  0
   59.2640   -5.5930   -8.6926 C   0  0  0  0  0  0  0  0  0  0  0  0
   58.9737   -5.4408  -10.0146 C   0  0  0  0  0  0  0  0  0  0  0  0
   57.7237   -4.9863  -10.4579 C   0  0  0  0  0  0  0  0  0  0  0  0
   60.1640   -5.8195  -10.8220 C   0  0  0  0  0  0  0  0  0  0  0  0
   61.0733   -6.3723   -9.8700 N   0  0  0  0  0  0  0  0  0  0  0  0
   60.6440   -6.0859   -8.5429 C   0  0  0  0  0  0  0  0  0  0  0  0
   61.2263   -8.0853  -10.0259 S   0  0  0  0  0  0  0  0  0  0  0  0
   61.8511   -8.8217   -8.5421 C   0  0  0  0  0  0  0  0  0  0  0  0
   59.8666   -8.6269  -10.3618 O   0  0  0  0  0  0  0  0  0  0  0  0
   62.1054   -8.4002  -11.2153 O   0  0  0  0  0  0  0  0  0  0  0  0
 14 15  1  0  0  0
 15  4  1  0  0  0
  4  5  2  0  0  0
  5  6  1  0  0  0
  6  7  2  0  0  0
  7  8  1  0  0  0
  8  9  2  0  0  0
  9 10  1  0  0  0
 10 11  1  0  0  0
 11 12  1  0  0  0
 12 13  1  0  0  0
 13  3  1  0  0  0
  3  1  1  0  0  0
  1  2  1  0  0  0
  1 16  1  0  0  0
 16 17  1  0  0  0
 17 18  1  0  0  0
 18 19  2  0  0  0
 19 20  1  0  0  0
 20 21  2  0  0  0
 21 22  1  0  0  0
 22 23  2  0  0  0
 22 24  1  0  0  0
 24 25  1  0  0  0
 25 27  1  0  0  0
 27 28  1  0  0  0
 27 29  2  0  0  0
 27 30  2  0  0  0
 25 26  1  0  0  0
  9  4  1  0  0  0
 23 18  1  0  0  0
 13  8  1  0  0  0
 26 21  1  0  0  0
M  END
> <minimizedAffinity>
-7.89844

> <CNNscore>
0.2515084147

> <CNNaffinity>
6.3190398216

> <CNN_VS>
1.5892916918

> <CNNaffinity_variance>
0.1197414398

$$$$
[H]c1c([H])c(OC([H])([H])[H])c2c(c1[H])[C@]([H])(C([H])([H])N(C([H])([H])[H])C([H])([H])C([H])([H])c1c([H])c([H])c3c(c1[H])C([H])([H])N(S(=O)(=O)C([H])([H])[H])C3([H])[H])C([H])([H])C([H])([H])C2([H])[H]


 30 33  0  0  0  0  0  0  0  0999 V2000
   55.4002   -6.0308   -4.8784 N   0  0  0  0  0  0  0  0  0  0  0  0
   56.5971   -6.7395   -4.7579 C   0  0  0  0  0  0  0  0  0  0  0  0
   54.1790   -6.6626   -5.0230 C   0  0  0  0  0  0  0  0  0  0  0  0
   49.9163   -4.2378   -4.9274 C   0  0  0  0  0  0  0  0  0  0  0  0
   49.9817   -4.0846   -6.3062 C   0  0  0  0  0  0  0  0  0  0  0  0
   51.0823   -4.6235   -6.9763 C   0  0  0  0  0  0  0  0  0  0  0  0
   52.0990   -5.2985   -6.3189 C   0  0  0  0  0  0  0  0  0  0  0  0
   52.0323   -5.4498   -4.9448 C   0  0  0  0  0  0  0  0  0  0  0  0
   50.9438   -4.9134   -4.3099 C   0  0  0  0  0  0  0  0  0  0  0  0
   50.9287   -5.1452   -2.8173 C   0  0  0  0  0  0  0  0  0  0  0  0
   51.1554   -6.6391   -2.6282 C   0  0  0  0  0  0  0  0  0  0  0  0
   52.5088   -7.0534   -3.1577 C   0  0  0  0  0  0  0  0  0  0  0  0
   53.0838   -6.1202   -4.1544 C   0  0  0  0  0  0  0  0  0  0  0  0
   48.1342   -2.5783   -4.5468 C   0  0  0  0  0  0  0  0  0  0  0  0
   48.8525   -3.7326   -4.1628 O   0  0  0  0  0  0  0  0  0  0  0  0
   55.4565   -4.6212   -4.9976 C   0  0  0  0  0  0  0  0  0  0  0  0
   56.5989   -4.0415   -5.7628 C   0  0  0  0  0  0  0  0  0  0  0  0
   56.3447   -4.1181   -7.2476 C   0  0  0  0  0  0  0  0  0  0  0  0
   55.2065   -3.6423   -7.8522 C   0  0  0  0  0  0  0  0  0  0  0  0
   54.9882   -3.7367   -9.2055 C   0  0  0  0  0  0  0  0  0  0  0  0
   55.9305   -4.3310  -10.0411 C   0  0  0  0  0  0  0  0  0  0  0  0
   57.0625   -4.8060   -9.4514 C   0  0  0  0  0  0  0  0  0  0  0  0
   57.2835   -4.7081   -8.0704 C   0  0  0  0  0  0  0  0  0  0  0  0
   57.9391   -5.4070  -10.4919 C   0  0  0  0  0  0  0  0  0  0  0  0
   57.3053   -5.0665  -11.7252 N   0  0  0  0  0  0  0  0  0  0  0  0
   55.9894   -4.5747  -11.4927 C   0  0  0  0  0  0  0  0  0  0  0  0
   58.1799   -3.8634  -12.6027 S   0  0  0  0  0  0  0  0  0  0  0  0
   57.4673   -3.5726  -14.1970 C   0  0  0  0  0  0  0  0  0  0  0  0
   58.1703   -2.6107  -11.7745 O   0  0  0  0  0  0  0  0  0  0  0  0
   59.6293   -4.2808  -12.7097 O   0  0  0  0  0  0  0  0  0  0  0  0
 14 15  1  0  0  0
 15  4  1  0  0  0
  4  5  2  0  0  0
  5  6  1  0  0  0
  6  7  2  0  0  0
  7  8  1  0  0  0
  8  9  2  0  0  0
  9 10  1  0  0  0
 10 11  1  0  0  0
 11 12  1  0  0  0
 12 13  1  0  0  0
 13  3  1  0  0  0
  3  1  1  0  0  0
  1  2  1  0  0  0
  1 16  1  0  0  0
 16 17  1  0  0  0
 17 18  1  0  0  0
 18 19  2  0  0  0
 19 20  1  0  0  0
 20 21  2  0  0  0
 21 22  1  0  0  0
 22 23  2  0  0  0
 22 24  1  0  0  0
 24 25  1  0  0  0
 25 27  1  0  0  0
 27 28  1  0  0  0
 27 29  2  0  0  0
 27 30  2  0  0  0
 25 26  1  0  0  0
  9  4  1  0  0  0
 23 18  1  0  0  0
 13  8  1  0  0  0
 26 21  1  0  0  0
M  END
> <minimizedAffinity>
-8.37680

> <CNNscore>
0.2444749624

> <CNNaffinity>
6.8037347794

> <CNN_VS>
1.6633428335

> <CNNaffinity_variance>
0.0278085116

$$$$
[H]c1c([H])c(OC([H])([H])[H])c2c(c1[H])[C@]([H])(C([H])([H])N(C([H])([H])[H])C([H])([H])C([H])([H])c1c([H])c([H])c3c(c1[H])C([H])([H])N(S(=O)(=O)C([H])([H])[H])C3([H])[H])C([H])([H])C([H])([H])C2([H])[H]


 30 33  0  0  0  0  0  0  0  0999 V2000
   53.3756   -4.0471   -8.2163 N   0  0  0  0  0  0  0  0  0  0  0  0
   52.6479   -3.0182   -8.8172 C   0  0  0  0  0  0  0  0  0  0  0  0
   52.8256   -5.2897   -7.9613 C   0  0  0  0  0  0  0  0  0  0  0  0
   51.7272   -6.3596   -3.3022 C   0  0  0  0  0  0  0  0  0  0  0  0
   53.0199   -6.8312   -3.1141 C   0  0  0  0  0  0  0  0  0  0  0  0
   53.9018   -6.7817   -4.1959 C   0  0  0  0  0  0  0  0  0  0  0  0
   53.5344   -6.2831   -5.4360 C   0  0  0  0  0  0  0  0  0  0  0  0
   52.2457   -5.8140   -5.6217 C   0  0  0  0  0  0  0  0  0  0  0  0
   51.3993   -5.8723   -4.5466 C   0  0  0  0  0  0  0  0  0  0  0  0
   50.0219   -5.3155   -4.8196 C   0  0  0  0  0  0  0  0  0  0  0  0
   50.2458   -3.9393   -5.4318 C   0  0  0  0  0  0  0  0  0  0  0  0
   50.9829   -4.0443   -6.7468 C   0  0  0  0  0  0  0  0  0  0  0  0
   51.7522   -5.2992   -6.9145 C   0  0  0  0  0  0  0  0  0  0  0  0
   50.7799   -7.3272   -1.2427 C   0  0  0  0  0  0  0  0  0  0  0  0
   50.7662   -6.3664   -2.2783 O   0  0  0  0  0  0  0  0  0  0  0  0
   54.6729   -3.7624   -7.7257 C   0  0  0  0  0  0  0  0  0  0  0  0
   55.6937   -4.8472   -7.8129 C   0  0  0  0  0  0  0  0  0  0  0  0
   56.4654   -4.7558   -9.1057 C   0  0  0  0  0  0  0  0  0  0  0  0
   57.6193   -5.4581   -9.3566 C   0  0  0  0  0  0  0  0  0  0  0  0
   58.3155   -5.3476  -10.5360 C   0  0  0  0  0  0  0  0  0  0  0  0
   57.8733   -4.5016  -11.5499 C   0  0  0  0  0  0  0  0  0  0  0  0
   56.7302   -3.8008  -11.3109 C   0  0  0  0  0  0  0  0  0  0  0  0
   56.0210   -3.9154  -10.1070 C   0  0  0  0  0  0  0  0  0  0  0  0
   56.4215   -2.9533  -12.4936 C   0  0  0  0  0  0  0  0  0  0  0  0
   57.3647   -3.3705  -13.4809 N   0  0  0  0  0  0  0  0  0  0  0  0
   58.3821   -4.1749  -12.8931 C   0  0  0  0  0  0  0  0  0  0  0  0
   56.6279   -4.2809  -14.7499 S   0  0  0  0  0  0  0  0  0  0  0  0
   56.0433   -5.8490  -14.1725 C   0  0  0  0  0  0  0  0  0  0  0  0
   55.4983   -3.4551  -15.2949 O   0  0  0  0  0  0  0  0  0  0  0  0
   57.6135   -4.4393  -15.8858 O   0  0  0  0  0  0  0  0  0  0  0  0
 14 15  1  0  0  0
 15  4  1  0  0  0
  4  5  2  0  0  0
  5  6  1  0  0  0
  6  7  2  0  0  0
  7  8  1  0  0  0
  8  9  2  0  0  0
  9 10  1  0  0  0
 10 11  1  0  0  0
 11 12  1  0  0  0
 12 13  1  0  0  0
 13  3  1  0  0  0
  3  1  1  0  0  0
  1  2  1  0  0  0
  1 16  1  0  0  0
 16 17  1  0  0  0
 17 18  1  0  0  0
 18 19  2  0  0  0
 19 20  1  0  0  0
 20 21  2  0  0  0
 21 22  1  0  0  0
 22 23  2  0  0  0
 22 24  1  0  0  0
 24 25  1  0  0  0
 25 27  1  0  0  0
 27 28  1  0  0  0
 27 29  2  0  0  0
 27 30  2  0  0  0
 25 26  1  0  0  0
  9  4  1  0  0  0
 23 18  1  0  0  0
 13  8  1  0  0  0
 26 21  1  0  0  0
M  END
> <minimizedAffinity>
-8.17205

> <CNNscore>
0.2429261059

> <CNNaffinity>
6.5706892014

> <CNN_VS>
1.5961918831

> <CNNaffinity_variance>
0.0641355962

$$$$
[H]N=C(c1c([H])c([H])c(C([H])([H])N([H])C(=O)C2([H])N3C(=O)[C@](O[H])(C([H])([H])c4c([H])c([H])c([H])c([H])c4[H])C([H])([H])C([H])([H])[C@]3([H])C([H])([H])C2([H])[H])c([H])c1[H])N([H])[H]


 36 39  0  0  0  0  0  0  0  0999 V2000
   61.3559   -7.8184   -8.0550 C   0  0  0  0  0  0  0  0  0  0  0  0
   61.5558   -6.3918   -8.5208 C   0  0  0  0  0  0  0  0  0  0  0  0
   63.0655   -6.3566   -8.7030 C   0  0  0  0  0  0  0  0  0  0  0  0
   63.3017   -7.6594   -9.4322 C   0  0  0  0  0  0  0  0  0  0  0  0
   64.6946   -8.1872   -9.2128 C   0  0  0  0  0  0  0  0  0  0  0  0
   64.8575   -9.5702   -9.7518 C   0  0  0  0  0  0  0  0  0  0  0  0
   63.5705  -10.2427  -10.1399 C   0  0  0  0  0  0  0  0  0  0  0  0
   63.1241   -9.7976  -11.3958 O   0  0  0  0  0  0  0  0  0  0  0  0
   62.5599   -9.9598   -9.0871 C   0  0  0  0  0  0  0  0  0  0  0  0
   61.9253  -10.8236   -8.4540 O   0  0  0  0  0  0  0  0  0  0  0  0
   62.3285   -8.5708   -8.8105 N   0  0  0  0  0  0  0  0  0  0  0  0
   63.9625   -9.6399  -11.9239 H   0  0  0  0  0  0  0  0  0  0  0  0
   61.1530   -8.8917   -5.8170 N   0  0  0  0  0  0  0  0  0  0  0  0
   61.6846   -7.8237   -6.5845 C   0  0  0  0  0  0  0  0  0  0  0  0
   62.3821   -6.9462   -6.0591 O   0  0  0  0  0  0  0  0  0  0  0  0
   60.5531   -9.6494   -6.2527 H   0  0  0  0  0  0  0  0  0  0  0  0
   61.3800   -9.0397   -4.3899 C   0  0  0  0  0  0  0  0  0  0  0  0
   57.6771   -8.3954   -2.3668 C   0  0  0  0  0  0  0  0  0  0  0  0
   58.4598   -9.4836   -2.0991 C   0  0  0  0  0  0  0  0  0  0  0  0
   59.6728   -9.7303   -2.7328 C   0  0  0  0  0  0  0  0  0  0  0  0
   60.1047   -8.8378   -3.6729 C   0  0  0  0  0  0  0  0  0  0  0  0
   59.3401   -7.7365   -3.9622 C   0  0  0  0  0  0  0  0  0  0  0  0
   58.1293   -7.4915   -3.3287 C   0  0  0  0  0  0  0  0  0  0  0  0
   55.4683   -7.4059   -2.1278 N   0  0  0  0  0  0  0  0  0  0  0  0
   56.4097   -8.1552   -1.6926 C   0  0  0  0  0  0  0  0  0  0  0  0
   56.1509   -8.7935   -0.4295 N   0  0  0  0  0  0  0  0  0  0  0  0
   55.5806   -6.9144   -3.0273 H   0  0  0  0  0  0  0  0  0  0  0  0
   56.0860   -9.8309   -0.3609 H   0  0  0  0  0  0  0  0  0  0  0  0
   56.0297   -8.1955    0.4161 H   0  0  0  0  0  0  0  0  0  0  0  0
   63.8098  -11.7274  -10.2812 C   0  0  0  0  0  0  0  0  0  0  0  0
   63.2701  -12.2887  -11.5176 C   0  0  0  0  0  0  0  0  0  0  0  0
   61.9992  -12.8191  -11.6210 C   0  0  0  0  0  0  0  0  0  0  0  0
   61.5235  -13.3455  -12.8115 C   0  0  0  0  0  0  0  0  0  0  0  0
   62.3204  -13.3514  -13.9351 C   0  0  0  0  0  0  0  0  0  0  0  0
   63.5789  -12.8322  -13.8539 C   0  0  0  0  0  0  0  0  0  0  0  0
   64.0501  -12.3049  -12.6541 C   0  0  0  0  0  0  0  0  0  0  0  0
 24 25  2  0  0  0
 25 26  1  0  0  0
 25 18  1  0  0  0
 18 19  2  0  0  0
 19 20  1  0  0  0
 20 21  2  0  0  0
 21 17  1  0  0  0
 17 13  1  0  0  0
 13 14  1  0  0  0
 14 15  2  0  0  0
 14  1  1  0  0  0
  1  2  1  0  0  0
  2  3  1  0  0  0
  3  4  1  0  0  0
  4  5  1  0  0  0
  5  6  1  0  0  0
  6  7  1  0  0  0
  7  8  1  0  0  0
  7 30  1  0  0  0
 30 31  1  0  0  0
 31 32  2  0  0  0
 32 33  1  0  0  0
 33 34  2  0  0  0
 34 35  1  0  0  0
 35 36  2  0  0  0
  7  9  1  0  0  0
  9 10  2  0  0  0
  9 11  1  0  0  0
 21 22  1  0  0  0
 22 23  2  0  0  0
 23 18  1  0  0  0
 11  1  1  0  0  0
 11  4  1  0  0  0
 36 31  1  0  0  0
 24 27  1  0  0  0
 26 28  1  0  0  0
 26 29  1  0  0  0
 13 16  1  0  0  0
  8 12  1  0  0  0
M  END
> <minimizedAffinity>
-4.33430

> <CNNscore>
0.5256585479

> <CNNaffinity>
4.8921360970

> <CNN_VS>
2.5715930462

> <CNNaffinity_variance>
0.2891982794

$$$$
[H]N=C(c1c([H])c([H])c(C([H])([H])N([H])C(=O)C2([H])N3C(=O)[C@](O[H])(C([H])([H])c4c([H])c([H])c([H])c([H])c4[H])C([H])([H])C([H])([H])[C@]3([H])C([H])([H])C2([H])[H])c([H])c1[H])N([H])[H]


 36 39  0  0  0  0  0  0  0  0999 V2000
   61.4901   -8.8699   -6.3555 C   0  0  0  0  0  0  0  0  0  0  0  0
   62.3792   -7.6487   -6.2540 C   0  0  0  0  0  0  0  0  0  0  0  0
   63.7033   -8.2875   -5.8636 C   0  0  0  0  0  0  0  0  0  0  0  0
   63.7591   -9.4534   -6.8240 C   0  0  0  0  0  0  0  0  0  0  0  0
   64.6020  -10.5833   -6.2953 C   0  0  0  0  0  0  0  0  0  0  0  0
   64.4825  -11.8095   -7.1391 C   0  0  0  0  0  0  0  0  0  0  0  0
   63.3704  -11.7640   -8.1492 C   0  0  0  0  0  0  0  0  0  0  0  0
   63.7408  -11.0140   -9.2783 O   0  0  0  0  0  0  0  0  0  0  0  0
   62.1695  -11.1806   -7.4956 C   0  0  0  0  0  0  0  0  0  0  0  0
   61.0531  -11.7276   -7.4314 O   0  0  0  0  0  0  0  0  0  0  0  0
   62.3552   -9.8856   -6.9057 N   0  0  0  0  0  0  0  0  0  0  0  0
   64.7207  -11.1948   -9.3951 H   0  0  0  0  0  0  0  0  0  0  0  0
   60.2068   -8.2952   -4.3002 N   0  0  0  0  0  0  0  0  0  0  0  0
   61.0844   -9.2051   -4.9437 C   0  0  0  0  0  0  0  0  0  0  0  0
   61.4893  -10.2202   -4.3620 O   0  0  0  0  0  0  0  0  0  0  0  0
   59.8529   -7.4214   -4.7849 H   0  0  0  0  0  0  0  0  0  0  0  0
   59.7228   -8.4772   -2.9427 C   0  0  0  0  0  0  0  0  0  0  0  0
   55.9095   -6.6172   -2.4751 C   0  0  0  0  0  0  0  0  0  0  0  0
   56.5564   -6.6322   -3.6791 C   0  0  0  0  0  0  0  0  0  0  0  0
   57.7974   -7.2281   -3.8755 C   0  0  0  0  0  0  0  0  0  0  0  0
   58.4019   -7.8301   -2.8083 C   0  0  0  0  0  0  0  0  0  0  0  0
   57.7763   -7.8307   -1.5877 C   0  0  0  0  0  0  0  0  0  0  0  0
   56.5373   -7.2354   -1.3932 C   0  0  0  0  0  0  0  0  0  0  0  0
   54.4183   -4.7632   -1.9707 N   0  0  0  0  0  0  0  0  0  0  0  0
   54.6104   -5.9873   -2.2897 C   0  0  0  0  0  0  0  0  0  0  0  0
   53.4159   -6.7685   -2.4707 N   0  0  0  0  0  0  0  0  0  0  0  0
   55.2267   -4.1403   -1.8239 H   0  0  0  0  0  0  0  0  0  0  0  0
   53.1802   -7.1724   -3.4016 H   0  0  0  0  0  0  0  0  0  0  0  0
   52.7909   -6.9218   -1.6502 H   0  0  0  0  0  0  0  0  0  0  0  0
   63.0947  -13.1634   -8.6466 C   0  0  0  0  0  0  0  0  0  0  0  0
   62.8461  -13.2313  -10.0848 C   0  0  0  0  0  0  0  0  0  0  0  0
   63.8524  -13.2896  -11.0288 C   0  0  0  0  0  0  0  0  0  0  0  0
   63.5766  -13.3501  -12.3856 C   0  0  0  0  0  0  0  0  0  0  0  0
   62.2725  -13.3533  -12.8292 C   0  0  0  0  0  0  0  0  0  0  0  0
   61.2640  -13.2963  -11.9129 C   0  0  0  0  0  0  0  0  0  0  0  0
   61.5488  -13.2357  -10.5510 C   0  0  0  0  0  0  0  0  0  0  0  0
 24 25  2  0  0  0
 25 26  1  0  0  0
 25 18  1  0  0  0
 18 19  2  0  0  0
 19 20  1  0  0  0
 20 21  2  0  0  0
 21 17  1  0  0  0
 17 13  1  0  0  0
 13 14  1  0  0  0
 14 15  2  0  0  0
 14  1  1  0  0  0
  1  2  1  0  0  0
  2  3  1  0  0  0
  3  4  1  0  0  0
  4  5  1  0  0  0
  5  6  1  0  0  0
  6  7  1  0  0  0
  7  8  1  0  0  0
  7 30  1  0  0  0
 30 31  1  0  0  0
 31 32  2  0  0  0
 32 33  1  0  0  0
 33 34  2  0  0  0
 34 35  1  0  0  0
 35 36  2  0  0  0
  7  9  1  0  0  0
  9 10  2  0  0  0
  9 11  1  0  0  0
 21 22  1  0  0  0
 22 23  2  0  0  0
 23 18  1  0  0  0
 11  1  1  0  0  0
 11  4  1  0  0  0
 36 31  1  0  0  0
 24 27  1  0  0  0
 26 28  1  0  0  0
 26 29  1  0  0  0
 13 16  1  0  0  0
  8 12  1  0  0  0
M  END
> <minimizedAffinity>
-4.06990

> <CNNscore>
0.5175394416

> <CNNaffinity>
4.9427890778

> <CNN_VS>
2.5580883026

> <CNNaffinity_variance>
0.2694548965

$$$$
[H]N=C(c1c([H])c([H])c(C([H])([H])N([H])C(=O)C2([H])N3C(=O)[C@](O[H])(C([H])([H])c4c([H])c([H])c([H])c([H])c4[H])C([H])([H])C([H])([H])[C@]3([H])C([H])([H])C2([H])[H])c([H])c1[H])N([H])[H]


 36 39  0  0  0  0  0  0  0  0999 V2000
   60.5023   -8.8845   -4.4363 C   0  0  0  0  0  0  0  0  0  0  0  0
   61.2742   -7.7807   -3.7450 C   0  0  0  0  0  0  0  0  0  0  0  0
   62.4507   -8.5617   -3.1796 C   0  0  0  0  0  0  0  0  0  0  0  0
   62.8304   -9.4171   -4.3666 C   0  0  0  0  0  0  0  0  0  0  0  0
   63.5259  -10.6862   -3.9513 C   0  0  0  0  0  0  0  0  0  0  0  0
   63.7064  -11.6238   -5.0994 C   0  0  0  0  0  0  0  0  0  0  0  0
   62.9369  -11.2501   -6.3352 C   0  0  0  0  0  0  0  0  0  0  0  0
   63.5910  -10.2341   -7.0524 O   0  0  0  0  0  0  0  0  0  0  0  0
   61.5754  -10.8170   -5.9243 C   0  0  0  0  0  0  0  0  0  0  0  0
   60.5114  -11.3094   -6.3428 O   0  0  0  0  0  0  0  0  0  0  0  0
   61.5297   -9.7460   -4.9703 N   0  0  0  0  0  0  0  0  0  0  0  0
   64.5686  -10.4195   -6.9242 H   0  0  0  0  0  0  0  0  0  0  0  0
   58.8259   -8.7745   -2.5980 N   0  0  0  0  0  0  0  0  0  0  0  0
   59.7156   -9.5792   -3.3552 C   0  0  0  0  0  0  0  0  0  0  0  0
   59.8299  -10.7908   -3.1280 O   0  0  0  0  0  0  0  0  0  0  0  0
   58.7183   -7.7357   -2.7801 H   0  0  0  0  0  0  0  0  0  0  0  0
   57.9970   -9.2938   -1.5241 C   0  0  0  0  0  0  0  0  0  0  0  0
   54.5679   -6.7840   -1.1226 C   0  0  0  0  0  0  0  0  0  0  0  0
   55.2881   -7.1922   -0.0349 C   0  0  0  0  0  0  0  0  0  0  0  0
   56.4115   -8.0072   -0.1210 C   0  0  0  0  0  0  0  0  0  0  0  0
   56.8164   -8.4220   -1.3583 C   0  0  0  0  0  0  0  0  0  0  0  0
   56.1130   -8.0280   -2.4679 C   0  0  0  0  0  0  0  0  0  0  0  0
   54.9917   -7.2142   -2.3803 C   0  0  0  0  0  0  0  0  0  0  0  0
   52.1987   -6.3370   -0.8024 N   0  0  0  0  0  0  0  0  0  0  0  0
   53.3939   -5.9308   -1.0114 C   0  0  0  0  0  0  0  0  0  0  0  0
   53.5433   -4.5056   -1.1402 N   0  0  0  0  0  0  0  0  0  0  0  0
   52.0124   -7.3459   -0.6992 H   0  0  0  0  0  0  0  0  0  0  0  0
   54.1046   -3.9648   -0.4490 H   0  0  0  0  0  0  0  0  0  0  0  0
   53.0777   -4.0255   -1.9401 H   0  0  0  0  0  0  0  0  0  0  0  0
   62.8737  -12.4430   -7.2597 C   0  0  0  0  0  0  0  0  0  0  0  0
   63.1801  -12.1177   -8.6509 C   0  0  0  0  0  0  0  0  0  0  0  0
   64.4480  -12.2061   -9.1913 C   0  0  0  0  0  0  0  0  0  0  0  0
   64.6999  -11.8858  -10.5159 C   0  0  0  0  0  0  0  0  0  0  0  0
   63.6753  -11.4655  -11.3351 C   0  0  0  0  0  0  0  0  0  0  0  0
   62.4158  -11.3714  -10.8206 C   0  0  0  0  0  0  0  0  0  0  0  0
   62.1702  -11.6950   -9.4885 C   0  0  0  0  0  0  0  0  0  0  0  0
 24 25  2  0  0  0
 25 26  1  0  0  0
 25 18  1  0  0  0
 18 19  2  0  0  0
 19 20  1  0  0  0
 20 21  2  0  0  0
 21 17  1  0  0  0
 17 13  1  0  0  0
 13 14  1  0  0  0
 14 15  2  0  0  0
 14  1  1  0  0  0
  1  2  1  0  0  0
  2  3  1  0  0  0
  3  4  1  0  0  0
  4  5  1  0  0  0
  5  6  1  0  0  0
  6  7  1  0  0  0
  7  8  1  0  0  0
  7 30  1  0  0  0
 30 31  1  0  0  0
 31 32  2  0  0  0
 32 33  1  0  0  0
 33 34  2  0  0  0
 34 35  1  0  0  0
 35 36  2  0  0  0
  7  9  1  0  0  0
  9 10  2  0  0  0
  9 11  1  0  0  0
 21 22  1  0  0  0
 22 23  2  0  0  0
 23 18  1  0  0  0
 11  1  1  0  0  0
 11  4  1  0  0  0
 36 31  1  0  0  0
 24 27  1  0  0  0
 26 28  1  0  0  0
 26 29  1  0  0  0
 13 16  1  0  0  0
  8 12  1  0  0  0
M  END
> <minimizedAffinity>
-4.47773

> <CNNscore>
0.5069836974

> <CNNaffinity>
4.8553376198

> <CNN_VS>
2.4615769386

> <CNNaffinity_variance>
0.3528706729

$$$$
[H]N=C(c1c([H])c([H])c(C([H])([H])N([H])C(=O)C2([H])N3C(=O)[C@](O[H])(C([H])([H])c4c([H])c([H])c([H])c([H])c4[H])C([H])([H])C([H])([H])[C@]3([H])C([H])([H])C2([H])[H])c([H])c1[H])N([H])[H]


 36 39  0  0  0  0  0  0  0  0999 V2000
   61.1749   -8.2839   -5.1005 C   0  0  0  0  0  0  0  0  0  0  0  0
   62.2104   -7.3239   -4.5542 C   0  0  0  0  0  0  0  0  0  0  0  0
   63.0098   -8.2472   -3.6476 C   0  0  0  0  0  0  0  0  0  0  0  0
   63.1795   -9.4562   -4.5388 C   0  0  0  0  0  0  0  0  0  0  0  0
   63.3772  -10.7211   -3.7466 C   0  0  0  0  0  0  0  0  0  0  0  0
   63.3292  -11.9353   -4.6146 C   0  0  0  0  0  0  0  0  0  0  0  0
   62.8316  -11.6833   -6.0103 C   0  0  0  0  0  0  0  0  0  0  0  0
   63.8426  -11.1364   -6.8184 O   0  0  0  0  0  0  0  0  0  0  0  0
   61.6627  -10.7683   -5.9312 C   0  0  0  0  0  0  0  0  0  0  0  0
   60.5335  -11.0082   -6.3973 O   0  0  0  0  0  0  0  0  0  0  0  0
   61.8976   -9.5232   -5.2576 N   0  0  0  0  0  0  0  0  0  0  0  0
   64.6890  -11.5678   -6.4959 H   0  0  0  0  0  0  0  0  0  0  0  0
   59.3528   -7.2364   -3.7646 N   0  0  0  0  0  0  0  0  0  0  0  0
   60.1162   -8.4011   -4.0348 C   0  0  0  0  0  0  0  0  0  0  0  0
   59.9120   -9.4547   -3.4177 O   0  0  0  0  0  0  0  0  0  0  0  0
   59.5170   -6.3268   -4.2838 H   0  0  0  0  0  0  0  0  0  0  0  0
   58.2957   -7.1875   -2.7694 C   0  0  0  0  0  0  0  0  0  0  0  0
   54.6512   -6.0751   -4.6928 C   0  0  0  0  0  0  0  0  0  0  0  0
   55.1844   -5.3269   -3.6807 C   0  0  0  0  0  0  0  0  0  0  0  0
   56.3692   -5.6518   -3.0291 C   0  0  0  0  0  0  0  0  0  0  0  0
   57.0351   -6.7785   -3.4213 C   0  0  0  0  0  0  0  0  0  0  0  0
   56.5237   -7.5488   -4.4344 C   0  0  0  0  0  0  0  0  0  0  0  0
   55.3408   -7.2231   -5.0840 C   0  0  0  0  0  0  0  0  0  0  0  0
   52.2332   -5.9066   -4.8938 N   0  0  0  0  0  0  0  0  0  0  0  0
   53.4089   -5.7183   -5.3622 C   0  0  0  0  0  0  0  0  0  0  0  0
   53.4599   -5.0996   -6.6601 N   0  0  0  0  0  0  0  0  0  0  0  0
   52.1160   -6.3454   -3.9681 H   0  0  0  0  0  0  0  0  0  0  0  0
   53.8943   -4.1610   -6.7855 H   0  0  0  0  0  0  0  0  0  0  0  0
   53.0528   -5.6106   -7.4727 H   0  0  0  0  0  0  0  0  0  0  0  0
   62.4515  -12.9996   -6.6464 C   0  0  0  0  0  0  0  0  0  0  0  0
   62.7215  -13.0518   -8.0814 C   0  0  0  0  0  0  0  0  0  0  0  0
   63.9700  -13.3113   -8.6116 C   0  0  0  0  0  0  0  0  0  0  0  0
   64.1876  -13.3496   -9.9797 C   0  0  0  0  0  0  0  0  0  0  0  0
   63.1471  -13.1260  -10.8543 C   0  0  0  0  0  0  0  0  0  0  0  0
   61.9062  -12.8679  -10.3509 C   0  0  0  0  0  0  0  0  0  0  0  0
   61.6951  -12.8310   -8.9748 C   0  0  0  0  0  0  0  0  0  0  0  0
 24 25  2  0  0  0
 25 26  1  0  0  0
 25 18  1  0  0  0
 18 19  2  0  0  0
 19 20  1  0  0  0
 20 21  2  0  0  0
 21 17  1  0  0  0
 17 13  1  0  0  0
 13 14  1  0  0  0
 14 15  2  0  0  0
 14  1  1  0  0  0
  1  2  1  0  0  0
  2  3  1  0  0  0
  3  4  1  0  0  0
  4  5  1  0  0  0
  5  6  1  0  0  0
  6  7  1  0  0  0
  7  8  1  0  0  0
  7 30  1  0  0  0
 30 31  1  0  0  0
 31 32  2  0  0  0
 32 33  1  0  0  0
 33 34  2  0  0  0
 34 35  1  0  0  0
 35 36  2  0  0  0
  7  9  1  0  0  0
  9 10  2  0  0  0
  9 11  1  0  0  0
 21 22  1  0  0  0
 22 23  2  0  0  0
 23 18  1  0  0  0
 11  1  1  0  0  0
 11  4  1  0  0  0
 36 31  1  0  0  0
 24 27  1  0  0  0
 26 28  1  0  0  0
 26 29  1  0  0  0
 13 16  1  0  0  0
  8 12  1  0  0  0
M  END
> <minimizedAffinity>
-4.49280

> <CNNscore>
0.3185520172

> <CNNaffinity>
4.9579401016

> <CNN_VS>
1.5793617964

> <CNNaffinity_variance>
0.1436837018

$$$$
[H]N=C(c1c([H])c([H])c(C([H])([H])N([H])C(=O)C2([H])N3C(=O)[C@](O[H])(C([H])([H])c4c([H])c([H])c([H])c([H])c4[H])C([H])([H])C([H])([H])[C@]3([H])C([H])([H])C2([H])[H])c([H])c1[H])N([H])[H]


 36 39  0  0  0  0  0  0  0  0999 V2000
   57.1063   -3.8056   -8.8337 C   0  0  0  0  0  0  0  0  0  0  0  0
   57.5814   -4.1380  -10.2323 C   0  0  0  0  0  0  0  0  0  0  0  0
   56.4591   -5.0468  -10.7099 C   0  0  0  0  0  0  0  0  0  0  0  0
   55.2432   -4.2728  -10.2547 C   0  0  0  0  0  0  0  0  0  0  0  0
   54.0520   -5.1668  -10.0345 C   0  0  0  0  0  0  0  0  0  0  0  0
   52.9222   -4.4392   -9.3833 C   0  0  0  0  0  0  0  0  0  0  0  0
   53.2841   -3.0847   -8.8417 C   0  0  0  0  0  0  0  0  0  0  0  0
   53.3235   -2.1228   -9.8653 O   0  0  0  0  0  0  0  0  0  0  0  0
   54.6021   -3.1904   -8.1622 C   0  0  0  0  0  0  0  0  0  0  0  0
   54.8247   -2.8724   -6.9794 O   0  0  0  0  0  0  0  0  0  0  0  0
   55.6730   -3.7031   -8.9682 N   0  0  0  0  0  0  0  0  0  0  0  0
   52.5991   -2.3980  -10.5026 H   0  0  0  0  0  0  0  0  0  0  0  0
   56.5828   -5.3446   -6.9472 N   0  0  0  0  0  0  0  0  0  0  0  0
   57.4908   -4.9826   -7.9752 C   0  0  0  0  0  0  0  0  0  0  0  0
   58.5433   -5.6113   -8.1469 O   0  0  0  0  0  0  0  0  0  0  0  0
   55.6785   -4.8150   -6.7873 H   0  0  0  0  0  0  0  0  0  0  0  0
   56.8075   -6.4548   -6.0377 C   0  0  0  0  0  0  0  0  0  0  0  0
   54.1035   -6.2108   -2.7441 C   0  0  0  0  0  0  0  0  0  0  0  0
   54.8485   -5.1355   -3.1404 C   0  0  0  0  0  0  0  0  0  0  0  0
   55.7387   -5.1711   -4.2081 C   0  0  0  0  0  0  0  0  0  0  0  0
   55.8760   -6.3430   -4.8970 C   0  0  0  0  0  0  0  0  0  0  0  0
   55.1410   -7.4386   -4.5219 C   0  0  0  0  0  0  0  0  0  0  0  0
   54.2526   -7.4015   -3.4558 C   0  0  0  0  0  0  0  0  0  0  0  0
   52.7048   -7.1652   -0.9983 N   0  0  0  0  0  0  0  0  0  0  0  0
   53.1770   -6.1534   -1.6229 C   0  0  0  0  0  0  0  0  0  0  0  0
   52.7287   -4.8731   -1.1436 N   0  0  0  0  0  0  0  0  0  0  0  0
   52.9802   -8.1168   -1.2845 H   0  0  0  0  0  0  0  0  0  0  0  0
   53.4020   -4.1944   -0.7296 H   0  0  0  0  0  0  0  0  0  0  0  0
   51.7155   -4.6388   -1.2192 H   0  0  0  0  0  0  0  0  0  0  0  0
   52.2101   -2.6317   -7.8808 C   0  0  0  0  0  0  0  0  0  0  0  0
   51.6520   -3.7177   -7.0781 C   0  0  0  0  0  0  0  0  0  0  0  0
   52.4156   -4.7323   -6.5352 C   0  0  0  0  0  0  0  0  0  0  0  0
   51.8489   -5.7476   -5.7811 C   0  0  0  0  0  0  0  0  0  0  0  0
   50.4905   -5.7673   -5.5532 C   0  0  0  0  0  0  0  0  0  0  0  0
   49.7187   -4.7743   -6.0806 C   0  0  0  0  0  0  0  0  0  0  0  0
   50.2953   -3.7572   -6.8375 C   0  0  0  0  0  0  0  0  0  0  0  0
 24 25  2  0  0  0
 25 26  1  0  0  0
 25 18  1  0  0  0
 18 19  2  0  0  0
 19 20  1  0  0  0
 20 21  2  0  0  0
 21 17  1  0  0  0
 17 13  1  0  0  0
 13 14  1  0  0  0
 14 15  2  0  0  0
 14  1  1  0  0  0
  1  2  1  0  0  0
  2  3  1  0  0  0
  3  4  1  0  0  0
  4  5  1  0  0  0
  5  6  1  0  0  0
  6  7  1  0  0  0
  7  8  1  0  0  0
  7 30  1  0  0  0
 30 31  1  0  0  0
 31 32  2  0  0  0
 32 33  1  0  0  0
 33 34  2  0  0  0
 34 35  1  0  0  0
 35 36  2  0  0  0
  7  9  1  0  0  0
  9 10  2  0  0  0
  9 11  1  0  0  0
 21 22  1  0  0  0
 22 23  2  0  0  0
 23 18  1  0  0  0
 11  1  1  0  0  0
 11  4  1  0  0  0
 36 31  1  0  0  0
 24 27  1  0  0  0
 26 28  1  0  0  0
 26 29  1  0  0  0
 13 16  1  0  0  0
  8 12  1  0  0  0
M  END
> <minimizedAffinity>
-4.77761

> <CNNscore>
0.3083058298

> <CNNaffinity>
6.2987689972

> <CNN_VS>
1.9419472218

> <CNNaffinity_variance>
0.1891557574

$$$$
[H]N=C(c1c([H])c([H])c(C([H])([H])N([H])C(=O)C2([H])N3C(=O)[C@](O[H])(C([H])([H])c4c([H])c([H])c([H])c([H])c4[H])C([H])([H])C([H])([H])[C@]3([H])C([H])([H])C2([H])[H])c([H])c1[H])N([H])[H]


 36 39  0  0  0  0  0  0  0  0999 V2000
   53.1750   -3.7617   -7.3558 C   0  0  0  0  0  0  0  0  0  0  0  0
   51.7810   -4.3381   -7.4852 C   0  0  0  0  0  0  0  0  0  0  0  0
   52.0937   -5.8196   -7.6297 C   0  0  0  0  0  0  0  0  0  0  0  0
   53.1260   -6.0074   -6.5417 C   0  0  0  0  0  0  0  0  0  0  0  0
   54.0451   -7.1655   -6.8262 C   0  0  0  0  0  0  0  0  0  0  0  0
   55.1893   -7.2170   -5.8681 C   0  0  0  0  0  0  0  0  0  0  0  0
   55.3450   -5.9874   -5.0178 C   0  0  0  0  0  0  0  0  0  0  0  0
   54.4370   -5.9937   -3.9455 O   0  0  0  0  0  0  0  0  0  0  0  0
   55.1389   -4.7942   -5.8802 C   0  0  0  0  0  0  0  0  0  0  0  0
   55.9538   -3.8635   -6.0205 O   0  0  0  0  0  0  0  0  0  0  0  0
   53.8911   -4.7516   -6.5877 N   0  0  0  0  0  0  0  0  0  0  0  0
   54.3542   -6.9594   -3.6864 H   0  0  0  0  0  0  0  0  0  0  0  0
   55.0765   -4.0173   -8.9434 N   0  0  0  0  0  0  0  0  0  0  0  0
   53.7149   -3.6649   -8.7592 C   0  0  0  0  0  0  0  0  0  0  0  0
   53.0165   -3.2975   -9.7131 O   0  0  0  0  0  0  0  0  0  0  0  0
   55.6872   -4.3323   -8.1361 H   0  0  0  0  0  0  0  0  0  0  0  0
   55.7439   -3.9787  -10.2331 C   0  0  0  0  0  0  0  0  0  0  0  0
   59.5918   -5.7720   -9.7882 C   0  0  0  0  0  0  0  0  0  0  0  0
   59.1605   -5.2911  -10.9928 C   0  0  0  0  0  0  0  0  0  0  0  0
   57.9167   -4.6984  -11.1810 C   0  0  0  0  0  0  0  0  0  0  0  0
   57.0817   -4.5913  -10.1049 C   0  0  0  0  0  0  0  0  0  0  0  0
   57.4878   -5.0651   -8.8834 C   0  0  0  0  0  0  0  0  0  0  0  0
   58.7298   -5.6565   -8.6971 C   0  0  0  0  0  0  0  0  0  0  0  0
   61.6952   -6.7216  -10.5557 N   0  0  0  0  0  0  0  0  0  0  0  0
   60.8978   -6.3899   -9.6117 C   0  0  0  0  0  0  0  0  0  0  0  0
   61.3721   -6.6685   -8.2823 N   0  0  0  0  0  0  0  0  0  0  0  0
   61.4245   -6.5531  -11.5364 H   0  0  0  0  0  0  0  0  0  0  0  0
   61.5549   -5.8945   -7.6094 H   0  0  0  0  0  0  0  0  0  0  0  0
   61.5290   -7.6618   -8.0065 H   0  0  0  0  0  0  0  0  0  0  0  0
   56.7238   -5.9825   -4.4008 C   0  0  0  0  0  0  0  0  0  0  0  0
   56.7085   -6.0628   -2.9419 C   0  0  0  0  0  0  0  0  0  0  0  0
   56.5200   -7.2412   -2.2468 C   0  0  0  0  0  0  0  0  0  0  0  0
   56.5090   -7.2767   -0.8615 C   0  0  0  0  0  0  0  0  0  0  0  0
   56.6884   -6.1194   -0.1362 C   0  0  0  0  0  0  0  0  0  0  0  0
   56.8762   -4.9451   -0.8038 C   0  0  0  0  0  0  0  0  0  0  0  0
   56.8861   -4.9171   -2.1962 C   0  0  0  0  0  0  0  0  0  0  0  0
 24 25  2  0  0  0
 25 26  1  0  0  0
 25 18  1  0  0  0
 18 19  2  0  0  0
 19 20  1  0  0  0
 20 21  2  0  0  0
 21 17  1  0  0  0
 17 13  1  0  0  0
 13 14  1  0  0  0
 14 15  2  0  0  0
 14  1  1  0  0  0
  1  2  1  0  0  0
  2  3  1  0  0  0
  3  4  1  0  0  0
  4  5  1  0  0  0
  5  6  1  0  0  0
  6  7  1  0  0  0
  7  8  1  0  0  0
  7 30  1  0  0  0
 30 31  1  0  0  0
 31 32  2  0  0  0
 32 33  1  0  0  0
 33 34  2  0  0  0
 34 35  1  0  0  0
 35 36  2  0  0  0
  7  9  1  0  0  0
  9 10  2  0  0  0
  9 11  1  0  0  0
 21 22  1  0  0  0
 22 23  2  0  0  0
 23 18  1  0  0  0
 11  1  1  0  0  0
 11  4  1  0  0  0
 36 31  1  0  0  0
 24 27  1  0  0  0
 26 28  1  0  0  0
 26 29  1  0  0  0
 13 16  1  0  0  0
  8 12  1  0  0  0
M  END
> <minimizedAffinity>
-7.43200

> <CNNscore>
0.3034889400

> <CNNaffinity>
6.2510223389

> <CNN_VS>
1.8971161842

> <CNNaffinity_variance>
0.2316925824

$$$$
[H]N=C(c1c([H])c([H])c(C([H])([H])N([H])C(=O)C2([H])N3C(=O)[C@](O[H])(C([H])([H])c4c([H])c([H])c([H])c([H])c4[H])C([H])([H])C([H])([H])[C@]3([H])C([H])([H])C2([H])[H])c([H])c1[H])N([H])[H]


 36 39  0  0  0  0  0  0  0  0999 V2000
   54.0116   -3.0094   -8.2490 C   0  0  0  0  0  0  0  0  0  0  0  0
   52.6940   -2.3048   -8.4934 C   0  0  0  0  0  0  0  0  0  0  0  0
   51.7480   -3.4911   -8.6004 C   0  0  0  0  0  0  0  0  0  0  0  0
   52.1985   -4.3303   -7.4267 C   0  0  0  0  0  0  0  0  0  0  0  0
   51.8916   -5.7911   -7.6233 C   0  0  0  0  0  0  0  0  0  0  0  0
   52.5244   -6.6399   -6.5704 C   0  0  0  0  0  0  0  0  0  0  0  0
   53.5351   -5.9246   -5.7184 C   0  0  0  0  0  0  0  0  0  0  0  0
   52.9070   -5.1509   -4.7278 O   0  0  0  0  0  0  0  0  0  0  0  0
   54.3734   -5.0738   -6.6035 C   0  0  0  0  0  0  0  0  0  0  0  0
   55.6149   -5.1265   -6.6798 O   0  0  0  0  0  0  0  0  0  0  0  0
   53.6563   -4.1328   -7.4155 N   0  0  0  0  0  0  0  0  0  0  0  0
   52.0929   -5.6776   -4.4701 H   0  0  0  0  0  0  0  0  0  0  0  0
   55.8992   -3.5057   -9.7957 N   0  0  0  0  0  0  0  0  0  0  0  0
   54.4946   -3.4650   -9.6016 C   0  0  0  0  0  0  0  0  0  0  0  0
   53.7159   -3.7901  -10.5074 O   0  0  0  0  0  0  0  0  0  0  0  0
   56.5781   -3.2290   -9.0300 H   0  0  0  0  0  0  0  0  0  0  0  0
   56.5216   -3.9234  -11.0400 C   0  0  0  0  0  0  0  0  0  0  0  0
   60.1975   -5.9369  -10.2322 C   0  0  0  0  0  0  0  0  0  0  0  0
   59.1747   -5.9220   -9.3256 C   0  0  0  0  0  0  0  0  0  0  0  0
   57.9612   -5.2807   -9.5491 C   0  0  0  0  0  0  0  0  0  0  0  0
   57.7823   -4.6309  -10.7376 C   0  0  0  0  0  0  0  0  0  0  0  0
   58.7914   -4.6291  -11.6666 C   0  0  0  0  0  0  0  0  0  0  0  0
   60.0023   -5.2699  -11.4420 C   0  0  0  0  0  0  0  0  0  0  0  0
   61.9886   -7.5051  -10.7302 N   0  0  0  0  0  0  0  0  0  0  0  0
   61.4610   -6.6138   -9.9790 C   0  0  0  0  0  0  0  0  0  0  0  0
   62.2132   -6.2841   -8.7978 N   0  0  0  0  0  0  0  0  0  0  0  0
   61.5079   -7.7942  -11.5954 H   0  0  0  0  0  0  0  0  0  0  0  0
   62.6037   -5.3274   -8.6654 H   0  0  0  0  0  0  0  0  0  0  0  0
   62.3593   -7.0231   -8.0768 H   0  0  0  0  0  0  0  0  0  0  0  0
   54.3758   -6.9433   -4.9855 C   0  0  0  0  0  0  0  0  0  0  0  0
   54.5275   -6.6559   -3.5610 C   0  0  0  0  0  0  0  0  0  0  0  0
   53.7217   -7.2066   -2.5839 C   0  0  0  0  0  0  0  0  0  0  0  0
   53.8948   -6.9072   -1.2419 C   0  0  0  0  0  0  0  0  0  0  0  0
   54.8897   -6.0401   -0.8471 C   0  0  0  0  0  0  0  0  0  0  0  0
   55.6964   -5.4855   -1.7966 C   0  0  0  0  0  0  0  0  0  0  0  0
   55.5165   -5.7911   -3.1434 C   0  0  0  0  0  0  0  0  0  0  0  0
 24 25  2  0  0  0
 25 26  1  0  0  0
 25 18  1  0  0  0
 18 19  2  0  0  0
 19 20  1  0  0  0
 20 21  2  0  0  0
 21 17  1  0  0  0
 17 13  1  0  0  0
 13 14  1  0  0  0
 14 15  2  0  0  0
 14  1  1  0  0  0
  1  2  1  0  0  0
  2  3  1  0  0  0
  3  4  1  0  0  0
  4  5  1  0  0  0
  5  6  1  0  0  0
  6  7  1  0  0  0
  7  8  1  0  0  0
  7 30  1  0  0  0
 30 31  1  0  0  0
 31 32  2  0  0  0
 32 33  1  0  0  0
 33 34  2  0  0  0
 34 35  1  0  0  0
 35 36  2  0  0  0
  7  9  1  0  0  0
  9 10  2  0  0  0
  9 11  1  0  0  0
 21 22  1  0  0  0
 22 23  2  0  0  0
 23 18  1  0  0  0
 11  1  1  0  0  0
 11  4  1  0  0  0
 36 31  1  0  0  0
 24 27  1  0  0  0
 26 28  1  0  0  0
 26 29  1  0  0  0
 13 16  1  0  0  0
  8 12  1  0  0  0
M  END
> <minimizedAffinity>
-6.21046

> <CNNscore>
0.3027058840

> <CNNaffinity>
6.0437631607

> <CNN_VS>
1.8294826746

> <CNNaffinity_variance>
0.1453125030

$$$$
[H]N=C(c1c([H])c([H])c(C([H])([H])N([H])C(=O)C2([H])N3C(=O)[C@](O[H])(C([H])([H])c4c([H])c([H])c([H])c([H])c4[H])C([H])([H])C([H])([H])[C@]3([H])C([H])([H])C2([H])[H])c([H])c1[H])N([H])[H]


 36 39  0  0  0  0  0  0  0  0999 V2000
   55.5817   -3.9426   -7.9052 C   0  0  0  0  0  0  0  0  0  0  0  0
   56.8586   -3.9151   -7.0922 C   0  0  0  0  0  0  0  0  0  0  0  0
   57.7261   -4.8809   -7.8849 C   0  0  0  0  0  0  0  0  0  0  0  0
   57.4637   -4.4155   -9.2989 C   0  0  0  0  0  0  0  0  0  0  0  0
   57.6768   -5.5142  -10.3060 C   0  0  0  0  0  0  0  0  0  0  0  0
   57.2131   -5.1181  -11.6690 C   0  0  0  0  0  0  0  0  0  0  0  0
   56.3988   -3.8553  -11.7069 C   0  0  0  0  0  0  0  0  0  0  0  0
   57.2227   -2.7185  -11.6487 O   0  0  0  0  0  0  0  0  0  0  0  0
   55.4466   -3.8793  -10.5656 C   0  0  0  0  0  0  0  0  0  0  0  0
   54.2106   -3.7669  -10.6627 O   0  0  0  0  0  0  0  0  0  0  0  0
   56.0399   -4.0466   -9.2698 N   0  0  0  0  0  0  0  0  0  0  0  0
   58.0501   -2.9762  -12.1542 H   0  0  0  0  0  0  0  0  0  0  0  0
   55.4806   -5.9990   -6.5041 N   0  0  0  0  0  0  0  0  0  0  0  0
   54.8470   -5.1876   -7.4801 C   0  0  0  0  0  0  0  0  0  0  0  0
   53.7453   -5.4992   -7.9509 O   0  0  0  0  0  0  0  0  0  0  0  0
   56.4244   -5.7457   -6.0930 H   0  0  0  0  0  0  0  0  0  0  0  0
   54.9020   -7.2281   -5.9897 C   0  0  0  0  0  0  0  0  0  0  0  0
   53.3975   -6.5061   -2.0610 C   0  0  0  0  0  0  0  0  0  0  0  0
   54.4435   -7.3578   -2.2822 C   0  0  0  0  0  0  0  0  0  0  0  0
   54.9655   -7.6196   -3.5443 C   0  0  0  0  0  0  0  0  0  0  0  0
   54.4028   -6.9925   -4.6198 C   0  0  0  0  0  0  0  0  0  0  0  0
   53.3517   -6.1323   -4.4281 C   0  0  0  0  0  0  0  0  0  0  0  0
   52.8318   -5.8719   -3.1675 C   0  0  0  0  0  0  0  0  0  0  0  0
   53.0891   -5.1959   -0.0353 N   0  0  0  0  0  0  0  0  0  0  0  0
   52.8650   -6.2456   -0.7317 C   0  0  0  0  0  0  0  0  0  0  0  0
   52.0104   -7.2224   -0.1107 N   0  0  0  0  0  0  0  0  0  0  0  0
   53.6928   -4.4506   -0.4139 H   0  0  0  0  0  0  0  0  0  0  0  0
   51.0850   -7.4603   -0.5256 H   0  0  0  0  0  0  0  0  0  0  0  0
   52.3371   -7.6872    0.7637 H   0  0  0  0  0  0  0  0  0  0  0  0
   55.6670   -3.7766  -13.0260 C   0  0  0  0  0  0  0  0  0  0  0  0
   56.5550   -3.8000  -14.1862 C   0  0  0  0  0  0  0  0  0  0  0  0
   57.8358   -3.2837  -14.1744 C   0  0  0  0  0  0  0  0  0  0  0  0
   58.6476   -3.3219  -15.2969 C   0  0  0  0  0  0  0  0  0  0  0  0
   58.1875   -3.8843  -16.4673 C   0  0  0  0  0  0  0  0  0  0  0  0
   56.9253   -4.3998  -16.4997 C   0  0  0  0  0  0  0  0  0  0  0  0
   56.1152   -4.3578  -15.3676 C   0  0  0  0  0  0  0  0  0  0  0  0
 24 25  2  0  0  0
 25 26  1  0  0  0
 25 18  1  0  0  0
 18 19  2  0  0  0
 19 20  1  0  0  0
 20 21  2  0  0  0
 21 17  1  0  0  0
 17 13  1  0  0  0
 13 14  1  0  0  0
 14 15  2  0  0  0
 14  1  1  0  0  0
  1  2  1  0  0  0
  2  3  1  0  0  0
  3  4  1  0  0  0
  4  5  1  0  0  0
  5  6  1  0  0  0
  6  7  1  0  0  0
  7  8  1  0  0  0
  7 30  1  0  0  0
 30 31  1  0  0  0
 31 32  2  0  0  0
 32 33  1  0  0  0
 33 34  2  0  0  0
 34 35  1  0  0  0
 35 36  2  0  0  0
  7  9  1  0  0  0
  9 10  2  0  0  0
  9 11  1  0  0  0
 21 22  1  0  0  0
 22 23  2  0  0  0
 23 18  1  0  0  0
 11  1  1  0  0  0
 11  4  1  0  0  0
 36 31  1  0  0  0
 24 27  1  0  0  0
 26 28  1  0  0  0
 26 29  1  0  0  0
 13 16  1  0  0  0
  8 12  1  0  0  0
M  END
> <minimizedAffinity>
-7.38212

> <CNNscore>
0.3000290692

> <CNNaffinity>
5.7900094986

> <CNN_VS>
1.7371711731

> <CNNaffinity_variance>
0.0499081388

$$$$
[H]N=C(c1c([H])c([H])c(C([H])([H])N([H])C(=O)C2([H])N3C(=O)[C@](O[H])(C([H])([H])c4c([H])c([H])c([H])c([H])c4[H])C([H])([H])C([H])([H])[C@]3([H])C([H])([H])C2([H])[H])c([H])c1[H])N([H])[H]


 36 39  0  0  0  0  0  0  0  0999 V2000
   54.1724   -3.2795   -8.8479 C   0  0  0  0  0  0  0  0  0  0  0  0
   54.7861   -2.6547   -7.6129 C   0  0  0  0  0  0  0  0  0  0  0  0
   56.0163   -3.5299   -7.4278 C   0  0  0  0  0  0  0  0  0  0  0  0
   56.5399   -3.6005   -8.8440 C   0  0  0  0  0  0  0  0  0  0  0  0
   57.3534   -4.8441   -9.0862 C   0  0  0  0  0  0  0  0  0  0  0  0
   57.6867   -5.0190  -10.5312 C   0  0  0  0  0  0  0  0  0  0  0  0
   56.9349   -4.1056  -11.4584 C   0  0  0  0  0  0  0  0  0  0  0  0
   57.5028   -2.8204  -11.4753 O   0  0  0  0  0  0  0  0  0  0  0  0
   55.5173   -4.0533  -11.0143 C   0  0  0  0  0  0  0  0  0  0  0  0
   54.5337   -4.3254  -11.7272 O   0  0  0  0  0  0  0  0  0  0  0  0
   55.3114   -3.6534   -9.6516 N   0  0  0  0  0  0  0  0  0  0  0  0
   58.4884   -2.9751  -11.3698 H   0  0  0  0  0  0  0  0  0  0  0  0
   52.2702   -4.2582   -7.5730 N   0  0  0  0  0  0  0  0  0  0  0  0
   53.4213   -4.4942   -8.3677 C   0  0  0  0  0  0  0  0  0  0  0  0
   53.7797   -5.6463   -8.6448 O   0  0  0  0  0  0  0  0  0  0  0  0
   51.9519   -3.2775   -7.3264 H   0  0  0  0  0  0  0  0  0  0  0  0
   51.4390   -5.3215   -7.0359 C   0  0  0  0  0  0  0  0  0  0  0  0
   52.0231   -5.6166   -2.8179 C   0  0  0  0  0  0  0  0  0  0  0  0
   53.0270   -5.8987   -3.7016 C   0  0  0  0  0  0  0  0  0  0  0  0
   52.8801   -5.8135   -5.0818 C   0  0  0  0  0  0  0  0  0  0  0  0
   51.6681   -5.4276   -5.5807 C   0  0  0  0  0  0  0  0  0  0  0  0
   50.6421   -5.1381   -4.7177 C   0  0  0  0  0  0  0  0  0  0  0  0
   50.7903   -5.2236   -3.3400 C   0  0  0  0  0  0  0  0  0  0  0  0
   52.7554   -4.8309   -0.6358 N   0  0  0  0  0  0  0  0  0  0  0  0
   52.1967   -5.7124   -1.3759 C   0  0  0  0  0  0  0  0  0  0  0  0
   51.7144   -6.8778   -0.6836 N   0  0  0  0  0  0  0  0  0  0  0  0
   53.1263   -3.9675   -1.0605 H   0  0  0  0  0  0  0  0  0  0  0  0
   50.6968   -7.0993   -0.6596 H   0  0  0  0  0  0  0  0  0  0  0  0
   52.4053   -7.4960   -0.2064 H   0  0  0  0  0  0  0  0  0  0  0  0
   57.0450   -4.6320  -12.8700 C   0  0  0  0  0  0  0  0  0  0  0  0
   58.1076   -3.9973  -13.6464 C   0  0  0  0  0  0  0  0  0  0  0  0
   57.9220   -3.4905  -14.9176 C   0  0  0  0  0  0  0  0  0  0  0  0
   58.9562   -2.8975  -15.6243 C   0  0  0  0  0  0  0  0  0  0  0  0
   60.2115   -2.7993  -15.0657 C   0  0  0  0  0  0  0  0  0  0  0  0
   60.4157   -3.2938  -13.8112 C   0  0  0  0  0  0  0  0  0  0  0  0
   59.3715   -3.8883  -13.1070 C   0  0  0  0  0  0  0  0  0  0  0  0
 24 25  2  0  0  0
 25 26  1  0  0  0
 25 18  1  0  0  0
 18 19  2  0  0  0
 19 20  1  0  0  0
 20 21  2  0  0  0
 21 17  1  0  0  0
 17 13  1  0  0  0
 13 14  1  0  0  0
 14 15  2  0  0  0
 14  1  1  0  0  0
  1  2  1  0  0  0
  2  3  1  0  0  0
  3  4  1  0  0  0
  4  5  1  0  0  0
  5  6  1  0  0  0
  6  7  1  0  0  0
  7  8  1  0  0  0
  7 30  1  0  0  0
 30 31  1  0  0  0
 31 32  2  0  0  0
 32 33  1  0  0  0
 33 34  2  0  0  0
 34 35  1  0  0  0
 35 36  2  0  0  0
  7  9  1  0  0  0
  9 10  2  0  0  0
  9 11  1  0  0  0
 21 22  1  0  0  0
 22 23  2  0  0  0
 23 18  1  0  0  0
 11  1  1  0  0  0
 11  4  1  0  0  0
 36 31  1  0  0  0
 24 27  1  0  0  0
 26 28  1  0  0  0
 26 29  1  0  0  0
 13 16  1  0  0  0
  8 12  1  0  0  0
M  END
> <minimizedAffinity>
-6.63841

> <CNNscore>
0.2780911922

> <CNNaffinity>
5.9674520493

> <CNN_VS>
1.6594958305

> <CNNaffinity_variance>
0.1439362466

$$$$
[H]c1c(OC([H])([H])[H])c(C([H])([H])N(C([H])([H])[H])C([H])([H])[H])c([H])c(OC([H])([H])[H])c1-c1c([H])n(C([H])([H])[H])c(=O)c2c([H])c([H])c([H])c([H])c12


 26 28  0  0  0  0  0  0  0  0999 V2000
   54.3402   -5.9172   -6.8473 C   0  0  0  0  0  0  0  0  0  0  0  0
   55.0659   -5.6039   -8.0224 C   0  0  0  0  0  0  0  0  0  0  0  0
   54.6672   -4.5038   -8.9161 C   0  0  0  0  0  0  0  0  0  0  0  0
   53.5930   -3.8193   -8.6063 C   0  0  0  0  0  0  0  0  0  0  0  0
   52.7960   -4.1283   -7.4744 C   0  0  0  0  0  0  0  0  0  0  0  0
   53.1878   -5.1035   -6.7004 C   0  0  0  0  0  0  0  0  0  0  0  0
   55.7882   -4.1650   -9.7951 C   0  0  0  0  0  0  0  0  0  0  0  0
   55.4970   -3.7976  -11.1653 C   0  0  0  0  0  0  0  0  0  0  0  0
   56.4194   -3.9638  -12.1759 N   0  0  0  0  0  0  0  0  0  0  0  0
   56.2073   -3.6895  -13.5375 C   0  0  0  0  0  0  0  0  0  0  0  0
   57.5078   -4.4760  -11.6757 C   0  0  0  0  0  0  0  0  0  0  0  0
   58.4073   -4.6148  -12.7760 O   0  0  0  0  0  0  0  0  0  0  0  0
   58.0343   -4.8861  -10.6148 C   0  0  0  0  0  0  0  0  0  0  0  0
   59.3193   -5.4291  -10.4199 C   0  0  0  0  0  0  0  0  0  0  0  0
   59.4653   -5.7384   -8.9523 C   0  0  0  0  0  0  0  0  0  0  0  0
   58.6805   -5.5788   -8.1048 C   0  0  0  0  0  0  0  0  0  0  0  0
   57.3480   -5.0357   -8.2607 C   0  0  0  0  0  0  0  0  0  0  0  0
   57.0629   -4.7101   -9.4969 C   0  0  0  0  0  0  0  0  0  0  0  0
   54.8614   -7.5374   -4.9378 C   0  0  0  0  0  0  0  0  0  0  0  0
   54.5767   -6.7713   -5.9083 O   0  0  0  0  0  0  0  0  0  0  0  0
   53.1604   -2.6962   -9.3609 O   0  0  0  0  0  0  0  0  0  0  0  0
   52.0080   -2.1263   -8.7325 C   0  0  0  0  0  0  0  0  0  0  0  0
   52.4809   -5.4291   -5.4213 C   0  0  0  0  0  0  0  0  0  0  0  0
   51.1478   -5.6862   -5.2979 N   0  0  0  0  0  0  0  0  0  0  0  0
   50.6553   -6.3665   -6.4768 C   0  0  0  0  0  0  0  0  0  0  0  0
   50.1756   -5.2452   -4.4647 C   0  0  0  0  0  0  0  0  0  0  0  0
 19 20  1  0  0  0
 20  1  1  0  0  0
  1  2  2  0  0  0
  2  3  1  0  0  0
  3  7  1  0  0  0
  7  8  2  0  0  0
  8  9  1  0  0  0
  9 10  1  0  0  0
  9 11  1  0  0  0
 11 12  2  0  0  0
 11 13  1  0  0  0
 13 14  2  0  0  0
 14 15  1  0  0  0
 15 16  2  0  0  0
 16 17  1  0  0  0
 17 18  2  0  0  0
  3  4  2  0  0  0
  4 21  1  0  0  0
 21 22  1  0  0  0
  4  5  1  0  0  0
  5  6  2  0  0  0
  6 23  1  0  0  0
 23 24  1  0  0  0
 24 25  1  0  0  0
 24 26  1  0  0  0
  6  1  1  0  0  0
 18  7  1  0  0  0
 18 13  1  0  0  0
M  END
> <minimizedAffinity>
-8.60056

> <CNNscore>
0.6707103848

> <CNNaffinity>
6.4994163513

> <CNN_VS>
4.3592262268

> <CNNaffinity_variance>
0.0580847636

$$$$
[H]c1c(OC([H])([H])[H])c(C([H])([H])N(C([H])([H])[H])C([H])([H])[H])c([H])c(OC([H])([H])[H])c1-c1c([H])n(C([H])([H])[H])c(=O)c2c([H])c([H])c([H])c([H])c12


 26 28  0  0  0  0  0  0  0  0999 V2000
   52.4351   -6.7742   -3.1787 C   0  0  0  0  0  0  0  0  0  0  0  0
   52.2041   -5.9442   -4.3027 C   0  0  0  0  0  0  0  0  0  0  0  0
   53.2906   -5.5383   -5.2098 C   0  0  0  0  0  0  0  0  0  0  0  0
   54.5043   -5.9527   -4.9385 C   0  0  0  0  0  0  0  0  0  0  0  0
   54.8011   -6.7359   -3.7938 C   0  0  0  0  0  0  0  0  0  0  0  0
   53.8099   -7.0845   -3.0195 C   0  0  0  0  0  0  0  0  0  0  0  0
   52.7150   -5.0396   -6.4603 C   0  0  0  0  0  0  0  0  0  0  0  0
   53.5865   -4.9037   -7.6089 C   0  0  0  0  0  0  0  0  0  0  0  0
   53.3223   -4.0071   -8.6219 N   0  0  0  0  0  0  0  0  0  0  0  0
   54.1359   -3.7671   -9.7420 C   0  0  0  0  0  0  0  0  0  0  0  0
   52.2209   -3.3686   -8.3455 C   0  0  0  0  0  0  0  0  0  0  0  0
   52.0165   -2.4673   -9.4341 O   0  0  0  0  0  0  0  0  0  0  0  0
   51.3075   -3.2547   -7.4948 C   0  0  0  0  0  0  0  0  0  0  0  0
   50.1936   -2.3926   -7.5061 C   0  0  0  0  0  0  0  0  0  0  0  0
   49.3894   -2.6713   -6.2625 C   0  0  0  0  0  0  0  0  0  0  0  0
   49.6175   -3.4443   -5.4198 C   0  0  0  0  0  0  0  0  0  0  0  0
   50.7528   -4.3403   -5.3621 C   0  0  0  0  0  0  0  0  0  0  0  0
   51.5590   -4.2213   -6.3873 C   0  0  0  0  0  0  0  0  0  0  0  0
   50.8322   -7.7408   -1.4354 C   0  0  0  0  0  0  0  0  0  0  0  0
   51.6148   -7.3002   -2.3314 O   0  0  0  0  0  0  0  0  0  0  0  0
   55.6113   -5.6771   -5.7851 O   0  0  0  0  0  0  0  0  0  0  0  0
   56.7501   -6.4072   -5.3185 C   0  0  0  0  0  0  0  0  0  0  0  0
   54.0037   -8.0056   -1.8552 C   0  0  0  0  0  0  0  0  0  0  0  0
   54.8007   -7.7601   -0.7767 N   0  0  0  0  0  0  0  0  0  0  0  0
   54.3002   -6.6264   -0.0289 C   0  0  0  0  0  0  0  0  0  0  0  0
   56.0387   -8.1661   -0.4073 C   0  0  0  0  0  0  0  0  0  0  0  0
 19 20  1  0  0  0
 20  1  1  0  0  0
  1  2  2  0  0  0
  2  3  1  0  0  0
  3  7  1  0  0  0
  7  8  2  0  0  0
  8  9  1  0  0  0
  9 10  1  0  0  0
  9 11  1  0  0  0
 11 12  2  0  0  0
 11 13  1  0  0  0
 13 14  2  0  0  0
 14 15  1  0  0  0
 15 16  2  0  0  0
 16 17  1  0  0  0
 17 18  2  0  0  0
  3  4  2  0  0  0
  4 21  1  0  0  0
 21 22  1  0  0  0
  4  5  1  0  0  0
  5  6  2  0  0  0
  6 23  1  0  0  0
 23 24  1  0  0  0
 24 25  1  0  0  0
 24 26  1  0  0  0
  6  1  1  0  0  0
 18  7  1  0  0  0
 18 13  1  0  0  0
M  END
> <minimizedAffinity>
-9.16755

> <CNNscore>
0.5986296535

> <CNNaffinity>
6.4269132614

> <CNN_VS>
3.8473408222

> <CNNaffinity_variance>
0.1688952893

$$$$
[H]c1c(OC([H])([H])[H])c(C([H])([H])N(C([H])([H])[H])C([H])([H])[H])c([H])c(OC([H])([H])[H])c1-c1c([H])n(C([H])([H])[H])c(=O)c2c([H])c([H])c([H])c([H])c12


 26 28  0  0  0  0  0  0  0  0999 V2000
   64.6037   -6.7619  -13.9863 C   0  0  0  0  0  0  0  0  0  0  0  0
   64.8438   -7.8119  -13.0667 C   0  0  0  0  0  0  0  0  0  0  0  0
   63.9389   -8.0824  -11.9371 C   0  0  0  0  0  0  0  0  0  0  0  0
   62.8962   -7.3027  -11.7850 C   0  0  0  0  0  0  0  0  0  0  0  0
   62.6407   -6.2009  -12.6410 C   0  0  0  0  0  0  0  0  0  0  0  0
   63.4594   -5.9999  -13.6373 C   0  0  0  0  0  0  0  0  0  0  0  0
   64.2050   -9.4245  -11.4157 C   0  0  0  0  0  0  0  0  0  0  0  0
   63.5009  -10.5418  -12.0100 C   0  0  0  0  0  0  0  0  0  0  0  0
   63.2665  -11.7084  -11.3145 N   0  0  0  0  0  0  0  0  0  0  0  0
   62.5468  -12.8186  -11.7875 C   0  0  0  0  0  0  0  0  0  0  0  0
   63.7690  -11.5961  -10.1178 C   0  0  0  0  0  0  0  0  0  0  0  0
   63.4887  -12.8354   -9.4662 O   0  0  0  0  0  0  0  0  0  0  0  0
   64.3831  -10.8179   -9.3508 C   0  0  0  0  0  0  0  0  0  0  0  0
   64.7865  -11.0288   -8.0178 C   0  0  0  0  0  0  0  0  0  0  0  0
   65.5121   -9.7899   -7.5602 C   0  0  0  0  0  0  0  0  0  0  0  0
   65.7162   -8.8142   -8.1653 C   0  0  0  0  0  0  0  0  0  0  0  0
   65.3119   -8.5507   -9.5298 C   0  0  0  0  0  0  0  0  0  0  0  0
   64.6619   -9.5464  -10.0788 C   0  0  0  0  0  0  0  0  0  0  0  0
   65.7548   -6.1481  -16.1864 C   0  0  0  0  0  0  0  0  0  0  0  0
   65.2209   -6.4275  -15.0700 O   0  0  0  0  0  0  0  0  0  0  0  0
   61.9243   -7.5181  -10.7715 O   0  0  0  0  0  0  0  0  0  0  0  0
   62.1204   -6.5622   -9.7248 C   0  0  0  0  0  0  0  0  0  0  0  0
   63.2101   -4.9371  -14.6621 C   0  0  0  0  0  0  0  0  0  0  0  0
   63.6264   -3.6418  -14.5754 N   0  0  0  0  0  0  0  0  0  0  0  0
   63.1084   -2.8715  -15.6860 C   0  0  0  0  0  0  0  0  0  0  0  0
   64.5764   -3.0032  -13.8519 C   0  0  0  0  0  0  0  0  0  0  0  0
 19 20  1  0  0  0
 20  1  1  0  0  0
  1  2  2  0  0  0
  2  3  1  0  0  0
  3  7  1  0  0  0
  7  8  2  0  0  0
  8  9  1  0  0  0
  9 10  1  0  0  0
  9 11  1  0  0  0
 11 12  2  0  0  0
 11 13  1  0  0  0
 13 14  2  0  0  0
 14 15  1  0  0  0
 15 16  2  0  0  0
 16 17  1  0  0  0
 17 18  2  0  0  0
  3  4  2  0  0  0
  4 21  1  0  0  0
 21 22  1  0  0  0
  4  5  1  0  0  0
  5  6  2  0  0  0
  6 23  1  0  0  0
 23 24  1  0  0  0
 24 25  1  0  0  0
 24 26  1  0  0  0
  6  1  1  0  0  0
 18  7  1  0  0  0
 18 13  1  0  0  0
M  END
> <minimizedAffinity>
-2.10064

> <CNNscore>
0.4690631628

> <CNNaffinity>
3.9507362843

> <CNN_VS>
1.8531448841

> <CNNaffinity_variance>
0.1263804138

$$$$
[H]c1c(OC([H])([H])[H])c(C([H])([H])N(C([H])([H])[H])C([H])([H])[H])c([H])c(OC([H])([H])[H])c1-c1c([H])n(C([H])([H])[H])c(=O)c2c([H])c([H])c([H])c([H])c12


 26 28  0  0  0  0  0  0  0  0999 V2000
   55.2636   -4.5494   -9.1646 C   0  0  0  0  0  0  0  0  0  0  0  0
   53.9429   -4.6793   -8.6698 C   0  0  0  0  0  0  0  0  0  0  0  0
   53.6619   -4.8836   -7.2390 C   0  0  0  0  0  0  0  0  0  0  0  0
   54.6809   -4.9651   -6.4184 C   0  0  0  0  0  0  0  0  0  0  0  0
   56.0247   -4.9014   -6.8679 C   0  0  0  0  0  0  0  0  0  0  0  0
   56.2332   -4.7088   -8.1418 C   0  0  0  0  0  0  0  0  0  0  0  0
   52.2526   -4.5857   -6.9762 C   0  0  0  0  0  0  0  0  0  0  0  0
   51.6701   -3.4197   -7.6073 C   0  0  0  0  0  0  0  0  0  0  0  0
   50.5858   -2.7634   -7.0658 N   0  0  0  0  0  0  0  0  0  0  0  0
   49.9909   -1.5968   -7.5751 C   0  0  0  0  0  0  0  0  0  0  0  0
   50.2333   -3.3647   -5.9652 C   0  0  0  0  0  0  0  0  0  0  0  0
   49.1122   -2.6321   -5.4699 O   0  0  0  0  0  0  0  0  0  0  0  0
   50.5156   -4.3179   -5.2018 C   0  0  0  0  0  0  0  0  0  0  0  0
   49.8884   -4.7019   -4.0005 C   0  0  0  0  0  0  0  0  0  0  0  0
   50.5984   -5.9283   -3.4879 C   0  0  0  0  0  0  0  0  0  0  0  0
   51.5067   -6.4824   -3.9649 C   0  0  0  0  0  0  0  0  0  0  0  0
   52.1876   -6.1176   -5.1889 C   0  0  0  0  0  0  0  0  0  0  0  0
   51.6817   -5.0566   -5.7664 C   0  0  0  0  0  0  0  0  0  0  0  0
   56.0396   -4.0453  -11.5491 C   0  0  0  0  0  0  0  0  0  0  0  0
   55.7017   -4.2831  -10.3496 O   0  0  0  0  0  0  0  0  0  0  0  0
   54.5197   -5.0918   -5.0127 O   0  0  0  0  0  0  0  0  0  0  0  0
   55.7904   -5.3782   -4.4202 C   0  0  0  0  0  0  0  0  0  0  0  0
   57.6103   -4.5106   -8.6953 C   0  0  0  0  0  0  0  0  0  0  0  0
   58.4280   -5.5000   -9.1544 N   0  0  0  0  0  0  0  0  0  0  0  0
   59.4147   -5.8428   -8.1523 C   0  0  0  0  0  0  0  0  0  0  0  0
   58.6680   -6.0343  -10.3754 C   0  0  0  0  0  0  0  0  0  0  0  0
 19 20  1  0  0  0
 20  1  1  0  0  0
  1  2  2  0  0  0
  2  3  1  0  0  0
  3  7  1  0  0  0
  7  8  2  0  0  0
  8  9  1  0  0  0
  9 10  1  0  0  0
  9 11  1  0  0  0
 11 12  2  0  0  0
 11 13  1  0  0  0
 13 14  2  0  0  0
 14 15  1  0  0  0
 15 16  2  0  0  0
 16 17  1  0  0  0
 17 18  2  0  0  0
  3  4  2  0  0  0
  4 21  1  0  0  0
 21 22  1  0  0  0
  4  5  1  0  0  0
  5  6  2  0  0  0
  6 23  1  0  0  0
 23 24  1  0  0  0
 24 25  1  0  0  0
 24 26  1  0  0  0
  6  1  1  0  0  0
 18  7  1  0  0  0
 18 13  1  0  0  0
M  END
> <minimizedAffinity>
-7.64146

> <CNNscore>
0.4660808444

> <CNNaffinity>
6.5430946350

> <CNN_VS>
3.0496110916

> <CNNaffinity_variance>
0.1109676510

$$$$
[H]c1c(OC([H])([H])[H])c(C([H])([H])N(C([H])([H])[H])C([H])([H])[H])c([H])c(OC([H])([H])[H])c1-c1c([H])n(C([H])([H])[H])c(=O)c2c([H])c([H])c([H])c([H])c12


 26 28  0  0  0  0  0  0  0  0999 V2000
   52.3145   -3.2765   -7.8189 C   0  0  0  0  0  0  0  0  0  0  0  0
   53.6041   -3.1772   -8.3958 C   0  0  0  0  0  0  0  0  0  0  0  0
   54.5891   -4.2673   -8.2978 C   0  0  0  0  0  0  0  0  0  0  0  0
   54.2483   -5.3453   -7.6345 C   0  0  0  0  0  0  0  0  0  0  0  0
   52.9928   -5.4732   -6.9870 C   0  0  0  0  0  0  0  0  0  0  0  0
   52.1424   -4.4903   -7.1057 C   0  0  0  0  0  0  0  0  0  0  0  0
   55.6413   -4.0587   -9.2946 C   0  0  0  0  0  0  0  0  0  0  0  0
   55.2456   -3.7844  -10.6604 C   0  0  0  0  0  0  0  0  0  0  0  0
   56.0649   -4.0781  -11.7292 N   0  0  0  0  0  0  0  0  0  0  0  0
   55.7444   -3.9000  -13.0856 C   0  0  0  0  0  0  0  0  0  0  0  0
   57.1688   -4.6072  -11.2835 C   0  0  0  0  0  0  0  0  0  0  0  0
   57.9585   -4.8794  -12.4417 O   0  0  0  0  0  0  0  0  0  0  0  0
   57.7688   -4.9608  -10.2415 C   0  0  0  0  0  0  0  0  0  0  0  0
   59.0395   -5.5550  -10.1134 C   0  0  0  0  0  0  0  0  0  0  0  0
   59.3020   -5.7561   -8.6432 C   0  0  0  0  0  0  0  0  0  0  0  0
   58.6048   -5.4890   -7.7476 C   0  0  0  0  0  0  0  0  0  0  0  0
   57.2904   -4.8892   -7.8330 C   0  0  0  0  0  0  0  0  0  0  0  0
   56.9109   -4.6463   -9.0628 C   0  0  0  0  0  0  0  0  0  0  0  0
   50.3502   -1.6385   -7.8524 C   0  0  0  0  0  0  0  0  0  0  0  0
   51.2999   -2.4795   -7.8707 O   0  0  0  0  0  0  0  0  0  0  0  0
   55.0958   -6.4813   -7.5383 O   0  0  0  0  0  0  0  0  0  0  0  0
   54.9521   -7.0634   -6.2390 C   0  0  0  0  0  0  0  0  0  0  0  0
   50.7514   -4.5794   -6.5590 C   0  0  0  0  0  0  0  0  0  0  0  0
   50.4258   -4.6914   -5.2399 N   0  0  0  0  0  0  0  0  0  0  0  0
   49.5237   -3.6279   -4.8522 C   0  0  0  0  0  0  0  0  0  0  0  0
   50.9315   -5.3969   -4.2005 C   0  0  0  0  0  0  0  0  0  0  0  0
 19 20  1  0  0  0
 20  1  1  0  0  0
  1  2  2  0  0  0
  2  3  1  0  0  0
  3  7  1  0  0  0
  7  8  2  0  0  0
  8  9  1  0  0  0
  9 10  1  0  0  0
  9 11  1  0  0  0
 11 12  2  0  0  0
 11 13  1  0  0  0
 13 14  2  0  0  0
 14 15  1  0  0  0
 15 16  2  0  0  0
 16 17  1  0  0  0
 17 18  2  0  0  0
  3  4  2  0  0  0
  4 21  1  0  0  0
 21 22  1  0  0  0
  4  5  1  0  0  0
  5  6  2  0  0  0
  6 23  1  0  0  0
 23 24  1  0  0  0
 24 25  1  0  0  0
 24 26  1  0  0  0
  6  1  1  0  0  0
 18  7  1  0  0  0
 18 13  1  0  0  0
M  END
> <minimizedAffinity>
-7.45936

> <CNNscore>
0.4537906349

> <CNNaffinity>
6.3927888870

> <CNN_VS>
2.9009876251

> <CNNaffinity_variance>
0.0578774922

$$$$
[H]c1c(OC([H])([H])[H])c(C([H])([H])N(C([H])([H])[H])C([H])([H])[H])c([H])c(OC([H])([H])[H])c1-c1c([H])n(C([H])([H])[H])c(=O)c2c([H])c([H])c([H])c([H])c12


 26 28  0  0  0  0  0  0  0  0999 V2000
   56.8379   -5.1471   -8.6849 C   0  0  0  0  0  0  0  0  0  0  0  0
   57.9602   -5.1783   -9.5480 C   0  0  0  0  0  0  0  0  0  0  0  0
   57.8994   -4.6641  -10.9264 C   0  0  0  0  0  0  0  0  0  0  0  0
   56.7562   -4.1859  -11.3538 C   0  0  0  0  0  0  0  0  0  0  0  0
   55.5861   -4.1853  -10.5520 C   0  0  0  0  0  0  0  0  0  0  0  0
   55.6824   -4.6394   -9.3322 C   0  0  0  0  0  0  0  0  0  0  0  0
   59.2605   -4.4595  -11.4261 C   0  0  0  0  0  0  0  0  0  0  0  0
   59.4335   -3.7134  -12.6552 C   0  0  0  0  0  0  0  0  0  0  0  0
   60.5333   -3.8912  -13.4667 N   0  0  0  0  0  0  0  0  0  0  0  0
   60.7581   -3.2561  -14.6998 C   0  0  0  0  0  0  0  0  0  0  0  0
   61.3096   -4.7930  -12.9362 C   0  0  0  0  0  0  0  0  0  0  0  0
   62.4178   -4.9178  -13.8279 O   0  0  0  0  0  0  0  0  0  0  0  0
   61.4308   -5.5727  -11.9624 C   0  0  0  0  0  0  0  0  0  0  0  0
   62.4666   -6.4869  -11.6875 C   0  0  0  0  0  0  0  0  0  0  0  0
   62.1438   -7.1608  -10.3789 C   0  0  0  0  0  0  0  0  0  0  0  0
   61.2153   -6.9896   -9.6945 C   0  0  0  0  0  0  0  0  0  0  0  0
   60.1246   -6.0710   -9.9424 C   0  0  0  0  0  0  0  0  0  0  0  0
   60.2585   -5.3971  -11.0573 C   0  0  0  0  0  0  0  0  0  0  0  0
   56.5773   -5.6775   -6.1963 C   0  0  0  0  0  0  0  0  0  0  0  0
   56.7187   -5.4637   -7.4387 O   0  0  0  0  0  0  0  0  0  0  0  0
   56.6067   -3.6028  -12.6405 O   0  0  0  0  0  0  0  0  0  0  0  0
   56.2542   -4.6242  -13.5787 C   0  0  0  0  0  0  0  0  0  0  0  0
   54.5356   -4.5724   -8.3719 C   0  0  0  0  0  0  0  0  0  0  0  0
   53.6065   -3.5763   -8.3180 N   0  0  0  0  0  0  0  0  0  0  0  0
   52.3921   -4.0542   -7.6920 C   0  0  0  0  0  0  0  0  0  0  0  0
   53.4839   -2.3678   -8.9168 C   0  0  0  0  0  0  0  0  0  0  0  0
 19 20  1  0  0  0
 20  1  1  0  0  0
  1  2  2  0  0  0
  2  3  1  0  0  0
  3  7  1  0  0  0
  7  8  2  0  0  0
  8  9  1  0  0  0
  9 10  1  0  0  0
  9 11  1  0  0  0
 11 12  2  0  0  0
 11 13  1  0  0  0
 13 14  2  0  0  0
 14 15  1  0  0  0
 15 16  2  0  0  0
 16 17  1  0  0  0
 17 18  2  0  0  0
  3  4  2  0  0  0
  4 21  1  0  0  0
 21 22  1  0  0  0
  4  5  1  0  0  0
  5  6  2  0  0  0
  6 23  1  0  0  0
 23 24  1  0  0  0
 24 25  1  0  0  0
 24 26  1  0  0  0
  6  1  1  0  0  0
 18  7  1  0  0  0
 18 13  1  0  0  0
M  END
> <minimizedAffinity>
-4.06153

> <CNNscore>
0.4050168395

> <CNNaffinity>
5.2522497177

> <CNN_VS>
2.1272494793

> <CNNaffinity_variance>
0.0712036267

$$$$
[H]c1c(OC([H])([H])[H])c(C([H])([H])N(C([H])([H])[H])C([H])([H])[H])c([H])c(OC([H])([H])[H])c1-c1c([H])n(C([H])([H])[H])c(=O)c2c([H])c([H])c([H])c([H])c12


 26 28  0  0  0  0  0  0  0  0999 V2000
   53.5121   -3.7140   -8.1849 C   0  0  0  0  0  0  0  0  0  0  0  0
   54.7939   -4.0038   -8.7128 C   0  0  0  0  0  0  0  0  0  0  0  0
   55.6928   -4.9867   -8.0850 C   0  0  0  0  0  0  0  0  0  0  0  0
   55.2822   -5.5852   -6.9935 C   0  0  0  0  0  0  0  0  0  0  0  0
   54.0335   -5.2893   -6.3892 C   0  0  0  0  0  0  0  0  0  0  0  0
   53.2601   -4.4205   -6.9811 C   0  0  0  0  0  0  0  0  0  0  0  0
   56.7381   -5.3634   -9.0386 C   0  0  0  0  0  0  0  0  0  0  0  0
   58.0112   -5.8144   -8.5160 C   0  0  0  0  0  0  0  0  0  0  0  0
   59.1785   -5.6973   -9.2396 N   0  0  0  0  0  0  0  0  0  0  0  0
   60.4625   -6.0539   -8.7943 C   0  0  0  0  0  0  0  0  0  0  0  0
   58.9109   -5.1436  -10.3880 C   0  0  0  0  0  0  0  0  0  0  0  0
   60.1606   -5.0594  -11.0737 O   0  0  0  0  0  0  0  0  0  0  0  0
   57.9862   -4.6654  -11.0861 C   0  0  0  0  0  0  0  0  0  0  0  0
   58.0556   -4.0968  -12.3729 C   0  0  0  0  0  0  0  0  0  0  0  0
   56.6575   -3.6997  -12.7712 C   0  0  0  0  0  0  0  0  0  0  0  0
   55.6754   -3.8183  -12.1539 C   0  0  0  0  0  0  0  0  0  0  0  0
   55.5594   -4.3854  -10.8273 C   0  0  0  0  0  0  0  0  0  0  0  0
   56.7042   -4.7867  -10.3337 C   0  0  0  0  0  0  0  0  0  0  0  0
   51.6821   -2.1449   -9.0399 C   0  0  0  0  0  0  0  0  0  0  0  0
   52.5619   -2.9630   -8.6324 O   0  0  0  0  0  0  0  0  0  0  0  0
   56.0403   -6.5984   -6.3481 O   0  0  0  0  0  0  0  0  0  0  0  0
   56.2971   -6.2016   -4.9974 C   0  0  0  0  0  0  0  0  0  0  0  0
   51.8773   -4.1284   -6.4866 C   0  0  0  0  0  0  0  0  0  0  0  0
   50.9221   -5.0616   -6.2122 N   0  0  0  0  0  0  0  0  0  0  0  0
   50.4557   -4.9186   -4.8494 C   0  0  0  0  0  0  0  0  0  0  0  0
   50.5111   -6.1980   -6.8233 C   0  0  0  0  0  0  0  0  0  0  0  0
 19 20  1  0  0  0
 20  1  1  0  0  0
  1  2  2  0  0  0
  2  3  1  0  0  0
  3  7  1  0  0  0
  7  8  2  0  0  0
  8  9  1  0  0  0
  9 10  1  0  0  0
  9 11  1  0  0  0
 11 12  2  0  0  0
 11 13  1  0  0  0
 13 14  2  0  0  0
 14 15  1  0  0  0
 15 16  2  0  0  0
 16 17  1  0  0  0
 17 18  2  0  0  0
  3  4  2  0  0  0
  4 21  1  0  0  0
 21 22  1  0  0  0
  4  5  1  0  0  0
  5  6  2  0  0  0
  6 23  1  0  0  0
 23 24  1  0  0  0
 24 25  1  0  0  0
 24 26  1  0  0  0
  6  1  1  0  0  0
 18  7  1  0  0  0
 18 13  1  0  0  0
M  END
> <minimizedAffinity>
-6.57400

> <CNNscore>
0.4022994637

> <CNNaffinity>
6.0781970024

> <CNN_VS>
2.4452552795

> <CNNaffinity_variance>
0.0289156139

$$$$
[H]c1c(OC([H])([H])[H])c(C([H])([H])N(C([H])([H])[H])C([H])([H])[H])c([H])c(OC([H])([H])[H])c1-c1c([H])n(C([H])([H])[H])c(=O)c2c([H])c([H])c([H])c([H])c12


 26 28  0  0  0  0  0  0  0  0999 V2000
   55.9880   -4.0126  -10.1411 C   0  0  0  0  0  0  0  0  0  0  0  0
   56.8587   -3.7432  -11.2250 C   0  0  0  0  0  0  0  0  0  0  0  0
   58.2054   -4.3326  -11.3097 C   0  0  0  0  0  0  0  0  0  0  0  0
   58.5977   -5.1114  -10.3310 C   0  0  0  0  0  0  0  0  0  0  0  0
   57.7896   -5.3670   -9.1936 C   0  0  0  0  0  0  0  0  0  0  0  0
   56.5981   -4.8354   -9.1600 C   0  0  0  0  0  0  0  0  0  0  0  0
   58.7014   -4.2089  -12.6818 C   0  0  0  0  0  0  0  0  0  0  0  0
   60.0080   -3.6191  -12.8868 C   0  0  0  0  0  0  0  0  0  0  0  0
   60.3484   -2.9947  -14.0675 N   0  0  0  0  0  0  0  0  0  0  0  0
   61.5667   -2.3480  -14.3355 C   0  0  0  0  0  0  0  0  0  0  0  0
   59.3326   -3.0459  -14.8816 C   0  0  0  0  0  0  0  0  0  0  0  0
   59.7617   -2.3849  -16.0724 O   0  0  0  0  0  0  0  0  0  0  0  0
   58.1497   -3.4447  -14.9945 C   0  0  0  0  0  0  0  0  0  0  0  0
   57.2743   -3.3115  -16.0899 C   0  0  0  0  0  0  0  0  0  0  0  0
   55.9784   -3.9868  -15.7220 C   0  0  0  0  0  0  0  0  0  0  0  0
   55.7090   -4.5248  -14.7232 C   0  0  0  0  0  0  0  0  0  0  0  0
   56.5712   -4.6756  -13.5705 C   0  0  0  0  0  0  0  0  0  0  0  0
   57.7533   -4.1359  -13.7338 C   0  0  0  0  0  0  0  0  0  0  0  0
   53.5547   -3.2902   -9.8256 C   0  0  0  0  0  0  0  0  0  0  0  0
   54.7611   -3.6675   -9.9343 O   0  0  0  0  0  0  0  0  0  0  0  0
   59.8483   -5.7849  -10.3468 O   0  0  0  0  0  0  0  0  0  0  0  0
   60.2201   -6.1125   -9.0044 C   0  0  0  0  0  0  0  0  0  0  0  0
   55.6283   -5.1401   -8.0607 C   0  0  0  0  0  0  0  0  0  0  0  0
   55.8373   -4.9054   -6.7342 N   0  0  0  0  0  0  0  0  0  0  0  0
   56.2427   -3.5318   -6.5241 C   0  0  0  0  0  0  0  0  0  0  0  0
   55.9849   -5.7002   -5.6478 C   0  0  0  0  0  0  0  0  0  0  0  0
 19 20  1  0  0  0
 20  1  1  0  0  0
  1  2  2  0  0  0
  2  3  1  0  0  0
  3  7  1  0  0  0
  7  8  2  0  0  0
  8  9  1  0  0  0
  9 10  1  0  0  0
  9 11  1  0  0  0
 11 12  2  0  0  0
 11 13  1  0  0  0
 13 14  2  0  0  0
 14 15  1  0  0  0
 15 16  2  0  0  0
 16 17  1  0  0  0
 17 18  2  0  0  0
  3  4  2  0  0  0
  4 21  1  0  0  0
 21 22  1  0  0  0
  4  5  1  0  0  0
  5  6  2  0  0  0
  6 23  1  0  0  0
 23 24  1  0  0  0
 24 25  1  0  0  0
 24 26  1  0  0  0
  6  1  1  0  0  0
 18  7  1  0  0  0
 18 13  1  0  0  0
M  END
> <minimizedAffinity>
-6.43617

> <CNNscore>
0.3864110112

> <CNNaffinity>
5.0271844864

> <CNN_VS>
1.9425594807

> <CNNaffinity_variance>
0.4450257719

$$$$
[H]c1c(OC([H])([H])[H])c(C([H])([H])N(C([H])([H])[H])C([H])([H])[H])c([H])c(OC([H])([H])[H])c1-c1c([H])n(C([H])([H])[H])c(=O)c2c([H])c([H])c([H])c([H])c12


 26 28  0  0  0  0  0  0  0  0999 V2000
   57.8306   -5.2019   -9.0699 C   0  0  0  0  0  0  0  0  0  0  0  0
   57.1217   -4.9017   -7.8811 C   0  0  0  0  0  0  0  0  0  0  0  0
   55.8137   -4.2258   -7.9018 C   0  0  0  0  0  0  0  0  0  0  0  0
   55.3182   -3.8821   -9.0657 C   0  0  0  0  0  0  0  0  0  0  0  0
   56.0127   -4.1048  -10.2822 C   0  0  0  0  0  0  0  0  0  0  0  0
   57.1643   -4.7163  -10.2240 C   0  0  0  0  0  0  0  0  0  0  0  0
   55.1565   -4.4057   -6.6057 C   0  0  0  0  0  0  0  0  0  0  0  0
   55.9783   -4.3902   -5.4134 C   0  0  0  0  0  0  0  0  0  0  0  0
   55.5963   -5.0354   -4.2569 N   0  0  0  0  0  0  0  0  0  0  0  0
   56.3506   -5.1216   -3.0746 C   0  0  0  0  0  0  0  0  0  0  0  0
   54.4431   -5.6087   -4.4531 C   0  0  0  0  0  0  0  0  0  0  0  0
   54.1181   -6.2490   -3.2187 O   0  0  0  0  0  0  0  0  0  0  0  0
   53.5460   -5.8039   -5.3063 C   0  0  0  0  0  0  0  0  0  0  0  0
   52.3497   -6.5361   -5.1773 C   0  0  0  0  0  0  0  0  0  0  0  0
   51.6121   -6.4379   -6.4877 C   0  0  0  0  0  0  0  0  0  0  0  0
   51.9408   -5.8755   -7.4548 C   0  0  0  0  0  0  0  0  0  0  0  0
   53.1632   -5.1216   -7.6350 C   0  0  0  0  0  0  0  0  0  0  0  0
   53.9251   -5.1082   -6.5699 C   0  0  0  0  0  0  0  0  0  0  0  0
   60.0453   -6.4468   -9.3655 C   0  0  0  0  0  0  0  0  0  0  0  0
   58.9282   -5.8548   -9.2594 O   0  0  0  0  0  0  0  0  0  0  0  0
   54.0349   -3.2887   -9.2029 O   0  0  0  0  0  0  0  0  0  0  0  0
   54.1044   -1.9219   -8.7849 C   0  0  0  0  0  0  0  0  0  0  0  0
   57.9173   -5.1011  -11.4596 C   0  0  0  0  0  0  0  0  0  0  0  0
   57.9137   -4.4104  -12.6351 N   0  0  0  0  0  0  0  0  0  0  0  0
   59.1582   -3.6895  -12.7987 C   0  0  0  0  0  0  0  0  0  0  0  0
   56.9514   -4.0656  -13.5232 C   0  0  0  0  0  0  0  0  0  0  0  0
 19 20  1  0  0  0
 20  1  1  0  0  0
  1  2  2  0  0  0
  2  3  1  0  0  0
  3  7  1  0  0  0
  7  8  2  0  0  0
  8  9  1  0  0  0
  9 10  1  0  0  0
  9 11  1  0  0  0
 11 12  2  0  0  0
 11 13  1  0  0  0
 13 14  2  0  0  0
 14 15  1  0  0  0
 15 16  2  0  0  0
 16 17  1  0  0  0
 17 18  2  0  0  0
  3  4  2  0  0  0
  4 21  1  0  0  0
 21 22  1  0  0  0
  4  5  1  0  0  0
  5  6  2  0  0  0
  6 23  1  0  0  0
 23 24  1  0  0  0
 24 25  1  0  0  0
 24 26  1  0  0  0
  6  1  1  0  0  0
 18  7  1  0  0  0
 18 13  1  0  0  0
M  END
> <minimizedAffinity>
-7.77280

> <CNNscore>
0.3796191216

> <CNNaffinity>
6.1262688637

> <CNN_VS>
2.3256487846

> <CNNaffinity_variance>
0.0851226598

$$$$
[H]c1nc([H])c(N([H])C(=O)c2nn(-c3c([H])c([H])c([H])c([H])c3Cl)c(-c3c([H])c([H])c(Cl)c([H])c3[H])c2C([H])([H])C(=O)N([H])[H])c(C([H])([H])[H])c1[H]


 36 39  0  0  0  0  0  0  0  0999 V2000
   55.8524   -4.7656   -7.9674 C   0  0  0  0  0  0  0  0  0  0  0  0
   56.2377   -5.1260   -6.7336 N   0  0  0  0  0  0  0  0  0  0  0  0
   55.1829   -5.2980   -5.9271 N   0  0  0  0  0  0  0  0  0  0  0  0
   54.0322   -5.0484   -6.6265 C   0  0  0  0  0  0  0  0  0  0  0  0
   54.4602   -4.7209   -7.8960 C   0  0  0  0  0  0  0  0  0  0  0  0
   55.3717   -5.6469   -4.5720 C   0  0  0  0  0  0  0  0  0  0  0  0
   55.6228   -4.6707   -3.6363 C   0  0  0  0  0  0  0  0  0  0  0  0
   55.8397   -4.9978   -2.2924 C   0  0  0  0  0  0  0  0  0  0  0  0
   55.8056   -6.3179   -1.8765 C   0  0  0  0  0  0  0  0  0  0  0  0
   55.5546   -7.2890   -2.8142 C   0  0  0  0  0  0  0  0  0  0  0  0
   55.3415   -6.9678   -4.1346 C   0  0  0  0  0  0  0  0  0  0  0  0
   55.0205   -8.1942   -5.3397 Cl  0  0  0  0  0  0  0  0  0  0  0  0
   52.6994   -4.9899   -6.0470 C   0  0  0  0  0  0  0  0  0  0  0  0
   52.3017   -5.6610   -4.9186 C   0  0  0  0  0  0  0  0  0  0  0  0
   51.0625   -5.5162   -4.3077 C   0  0  0  0  0  0  0  0  0  0  0  0
   50.1488   -4.6487   -4.8498 C   0  0  0  0  0  0  0  0  0  0  0  0
   48.5973   -4.4848   -4.0625 Cl  0  0  0  0  0  0  0  0  0  0  0  0
   50.4870   -3.9567   -5.9699 C   0  0  0  0  0  0  0  0  0  0  0  0
   51.7407   -4.1144   -6.5704 C   0  0  0  0  0  0  0  0  0  0  0  0
   57.8834   -5.2833   -9.2638 N   0  0  0  0  0  0  0  0  0  0  0  0
   56.7316   -4.4849   -9.1055 C   0  0  0  0  0  0  0  0  0  0  0  0
   56.4641   -3.5791   -9.8924 O   0  0  0  0  0  0  0  0  0  0  0  0
   58.0017   -6.0419   -8.5086 H   0  0  0  0  0  0  0  0  0  0  0  0
   60.3203   -6.4952   -8.7081 C   0  0  0  0  0  0  0  0  0  0  0  0
   60.1080   -5.8286  -10.0054 C   0  0  0  0  0  0  0  0  0  0  0  0
   61.1241   -5.8130  -10.9398 C   0  0  0  0  0  0  0  0  0  0  0  0
   60.9675   -5.1993  -12.1575 C   0  0  0  0  0  0  0  0  0  0  0  0
   59.7872   -4.6204  -12.3918 N   0  0  0  0  0  0  0  0  0  0  0  0
   58.7582   -4.6183  -11.4857 C   0  0  0  0  0  0  0  0  0  0  0  0
   58.8678   -5.2172  -10.2590 C   0  0  0  0  0  0  0  0  0  0  0  0
   53.6272   -4.4412   -9.1070 C   0  0  0  0  0  0  0  0  0  0  0  0
   53.3455   -2.9534   -9.0923 C   0  0  0  0  0  0  0  0  0  0  0  0
   54.3930   -2.1002   -8.7050 N   0  0  0  0  0  0  0  0  0  0  0  0
   52.2380   -2.5034   -9.4082 O   0  0  0  0  0  0  0  0  0  0  0  0
   54.9194   -2.1954   -7.7888 H   0  0  0  0  0  0  0  0  0  0  0  0
   54.7387   -1.2915   -9.3031 H   0  0  0  0  0  0  0  0  0  0  0  0
 24 25  1  0  0  0
 25 26  2  0  0  0
 26 27  1  0  0  0
 27 28  2  0  0  0
 28 29  1  0  0  0
 29 30  2  0  0  0
 30 20  1  0  0  0
 20 21  1  0  0  0
 21 22  2  0  0  0
 21  1  1  0  0  0
  1  2  2  0  0  0
  2  3  1  0  0  0
  3  6  1  0  0  0
  6  7  2  0  0  0
  7  8  1  0  0  0
  8  9  2  0  0  0
  9 10  1  0  0  0
 10 11  2  0  0  0
 11 12  1  0  0  0
  3  4  1  0  0  0
  4 13  1  0  0  0
 13 14  2  0  0  0
 14 15  1  0  0  0
 15 16  2  0  0  0
 16 17  1  0  0  0
 16 18  1  0  0  0
 18 19  2  0  0  0
  4  5  2  0  0  0
  5 31  1  0  0  0
 31 32  1  0  0  0
 32 33  1  0  0  0
 32 34  2  0  0  0
 30 25  1  0  0  0
  5  1  1  0  0  0
 11  6  1  0  0  0
 19 13  1  0  0  0
 20 23  1  0  0  0
 33 35  1  0  0  0
 33 36  1  0  0  0
M  END
> <minimizedAffinity>
-7.64993

> <CNNscore>
0.6984378695

> <CNNaffinity>
7.6209349632

> <CNN_VS>
5.3227496147

> <CNNaffinity_variance>
0.1485427916

$$$$
[H]c1nc([H])c(N([H])C(=O)c2nn(-c3c([H])c([H])c([H])c([H])c3Cl)c(-c3c([H])c([H])c(Cl)c([H])c3[H])c2C([H])([H])C(=O)N([H])[H])c(C([H])([H])[H])c1[H]


 36 39  0  0  0  0  0  0  0  0999 V2000
   55.2287   -4.3504   -8.6637 C   0  0  0  0  0  0  0  0  0  0  0  0
   55.7745   -5.0744   -7.6744 N   0  0  0  0  0  0  0  0  0  0  0  0
   54.8552   -5.4260   -6.7668 N   0  0  0  0  0  0  0  0  0  0  0  0
   53.6352   -4.9288   -7.1414 C   0  0  0  0  0  0  0  0  0  0  0  0
   53.8785   -4.2638   -8.3248 C   0  0  0  0  0  0  0  0  0  0  0  0
   55.2292   -6.1654   -5.6236 C   0  0  0  0  0  0  0  0  0  0  0  0
   55.0130   -7.5228   -5.5782 C   0  0  0  0  0  0  0  0  0  0  0  0
   55.3515   -8.2701   -4.4437 C   0  0  0  0  0  0  0  0  0  0  0  0
   55.9137   -7.6538   -3.3388 C   0  0  0  0  0  0  0  0  0  0  0  0
   56.1277   -6.2983   -3.3887 C   0  0  0  0  0  0  0  0  0  0  0  0
   55.7951   -5.5641   -4.5032 C   0  0  0  0  0  0  0  0  0  0  0  0
   56.0621   -3.8372   -4.5808 Cl  0  0  0  0  0  0  0  0  0  0  0  0
   52.4284   -4.9809   -6.3312 C   0  0  0  0  0  0  0  0  0  0  0  0
   52.2771   -5.7293   -5.1916 C   0  0  0  0  0  0  0  0  0  0  0  0
   51.1635   -5.6910   -4.3621 C   0  0  0  0  0  0  0  0  0  0  0  0
   50.1229   -4.8561   -4.6806 C   0  0  0  0  0  0  0  0  0  0  0  0
   48.7334   -4.8265   -3.6211 Cl  0  0  0  0  0  0  0  0  0  0  0  0
   50.2161   -4.0909   -5.8003 C   0  0  0  0  0  0  0  0  0  0  0  0
   51.3466   -4.1417   -6.6229 C   0  0  0  0  0  0  0  0  0  0  0  0
   55.9435   -4.5400  -11.0146 N   0  0  0  0  0  0  0  0  0  0  0  0
   55.9318   -3.7896   -9.8205 C   0  0  0  0  0  0  0  0  0  0  0  0
   56.4907   -2.6975   -9.7420 O   0  0  0  0  0  0  0  0  0  0  0  0
   55.4171   -5.4774  -10.9519 H   0  0  0  0  0  0  0  0  0  0  0  0
   58.7115   -4.7210  -11.1610 C   0  0  0  0  0  0  0  0  0  0  0  0
   57.9363   -4.3148  -12.3469 C   0  0  0  0  0  0  0  0  0  0  0  0
   58.5926   -4.0283  -13.5270 C   0  0  0  0  0  0  0  0  0  0  0  0
   57.9074   -3.6425  -14.6520 C   0  0  0  0  0  0  0  0  0  0  0  0
   56.5787   -3.5588  -14.5476 N   0  0  0  0  0  0  0  0  0  0  0  0
   55.8969   -3.8364  -13.3909 C   0  0  0  0  0  0  0  0  0  0  0  0
   56.5371   -4.2246  -12.2443 C   0  0  0  0  0  0  0  0  0  0  0  0
   52.8891   -3.6027   -9.2319 C   0  0  0  0  0  0  0  0  0  0  0  0
   52.8426   -2.1468   -8.8179 C   0  0  0  0  0  0  0  0  0  0  0  0
   54.0682   -1.4718   -8.6868 N   0  0  0  0  0  0  0  0  0  0  0  0
   51.7696   -1.5714   -8.6028 O   0  0  0  0  0  0  0  0  0  0  0  0
   54.8625   -1.8114   -8.0709 H   0  0  0  0  0  0  0  0  0  0  0  0
   54.2933   -0.5660   -9.1969 H   0  0  0  0  0  0  0  0  0  0  0  0
 24 25  1  0  0  0
 25 26  2  0  0  0
 26 27  1  0  0  0
 27 28  2  0  0  0
 28 29  1  0  0  0
 29 30  2  0  0  0
 30 20  1  0  0  0
 20 21  1  0  0  0
 21 22  2  0  0  0
 21  1  1  0  0  0
  1  2  2  0  0  0
  2  3  1  0  0  0
  3  6  1  0  0  0
  6  7  2  0  0  0
  7  8  1  0  0  0
  8  9  2  0  0  0
  9 10  1  0  0  0
 10 11  2  0  0  0
 11 12  1  0  0  0
  3  4  1  0  0  0
  4 13  1  0  0  0
 13 14  2  0  0  0
 14 15  1  0  0  0
 15 16  2  0  0  0
 16 17  1  0  0  0
 16 18  1  0  0  0
 18 19  2  0  0  0
  4  5  2  0  0  0
  5 31  1  0  0  0
 31 32  1  0  0  0
 32 33  1  0  0  0
 32 34  2  0  0  0
 30 25  1  0  0  0
  5  1  1  0  0  0
 11  6  1  0  0  0
 19 13  1  0  0  0
 20 23  1  0  0  0
 33 35  1  0  0  0
 33 36  1  0  0  0
M  END
> <minimizedAffinity>
-8.26318

> <CNNscore>
0.5826146007

> <CNNaffinity>
7.5063104630

> <CNN_VS>
4.3732862473

> <CNNaffinity_variance>
0.1493650079

$$$$
[H]c1nc([H])c(N([H])C(=O)c2nn(-c3c([H])c([H])c([H])c([H])c3Cl)c(-c3c([H])c([H])c(Cl)c([H])c3[H])c2C([H])([H])C(=O)N([H])[H])c(C([H])([H])[H])c1[H]


 36 39  0  0  0  0  0  0  0  0999 V2000
   54.9073   -3.9772   -9.7569 C   0  0  0  0  0  0  0  0  0  0  0  0
   55.5115   -3.6549  -10.9109 N   0  0  0  0  0  0  0  0  0  0  0  0
   56.7193   -4.2254  -11.0017 N   0  0  0  0  0  0  0  0  0  0  0  0
   56.9568   -4.9657   -9.8742 C   0  0  0  0  0  0  0  0  0  0  0  0
   55.8215   -4.8067   -9.1076 C   0  0  0  0  0  0  0  0  0  0  0  0
   57.5375   -3.9859  -12.1273 C   0  0  0  0  0  0  0  0  0  0  0  0
   58.8006   -3.4667  -11.9646 C   0  0  0  0  0  0  0  0  0  0  0  0
   59.6177   -3.1964  -13.0689 C   0  0  0  0  0  0  0  0  0  0  0  0
   59.1676   -3.4478  -14.3538 C   0  0  0  0  0  0  0  0  0  0  0  0
   57.9058   -3.9662  -14.5113 C   0  0  0  0  0  0  0  0  0  0  0  0
   57.1031   -4.2317  -13.4265 C   0  0  0  0  0  0  0  0  0  0  0  0
   55.4940   -4.8921  -13.6121 Cl  0  0  0  0  0  0  0  0  0  0  0  0
   58.2205   -5.6079   -9.5484 C   0  0  0  0  0  0  0  0  0  0  0  0
   58.8432   -6.5564  -10.3194 C   0  0  0  0  0  0  0  0  0  0  0  0
   60.1010   -7.0856  -10.0598 C   0  0  0  0  0  0  0  0  0  0  0  0
   60.7940   -6.6497   -8.9593 C   0  0  0  0  0  0  0  0  0  0  0  0
   62.3742   -7.3310   -8.6548 Cl  0  0  0  0  0  0  0  0  0  0  0  0
   60.2258   -5.7110   -8.1568 C   0  0  0  0  0  0  0  0  0  0  0  0
   58.9583   -5.1883   -8.4352 C   0  0  0  0  0  0  0  0  0  0  0  0
   53.1389   -3.9428   -8.0408 N   0  0  0  0  0  0  0  0  0  0  0  0
   53.5840   -3.5303   -9.3139 C   0  0  0  0  0  0  0  0  0  0  0  0
   52.8913   -2.8176  -10.0374 O   0  0  0  0  0  0  0  0  0  0  0  0
   53.8398   -4.5627   -7.5077 H   0  0  0  0  0  0  0  0  0  0  0  0
   52.3064   -5.7080   -6.0642 C   0  0  0  0  0  0  0  0  0  0  0  0
   51.4887   -4.5250   -6.3872 C   0  0  0  0  0  0  0  0  0  0  0  0
   50.3119   -4.3000   -5.7016 C   0  0  0  0  0  0  0  0  0  0  0  0
   49.5202   -3.2127   -5.9756 C   0  0  0  0  0  0  0  0  0  0  0  0
   49.9444   -2.3867   -6.9352 N   0  0  0  0  0  0  0  0  0  0  0  0
   51.1076   -2.5815   -7.6344 C   0  0  0  0  0  0  0  0  0  0  0  0
   51.9292   -3.6510   -7.3964 C   0  0  0  0  0  0  0  0  0  0  0  0
   55.4876   -5.4646   -7.8058 C   0  0  0  0  0  0  0  0  0  0  0  0
   55.9258   -4.5031   -6.7212 C   0  0  0  0  0  0  0  0  0  0  0  0
   55.9598   -4.9872   -5.4022 N   0  0  0  0  0  0  0  0  0  0  0  0
   56.2421   -3.3367   -6.9825 O   0  0  0  0  0  0  0  0  0  0  0  0
   55.1290   -5.4388   -4.9211 H   0  0  0  0  0  0  0  0  0  0  0  0
   56.8240   -4.9374   -4.7842 H   0  0  0  0  0  0  0  0  0  0  0  0
 24 25  1  0  0  0
 25 26  2  0  0  0
 26 27  1  0  0  0
 27 28  2  0  0  0
 28 29  1  0  0  0
 29 30  2  0  0  0
 30 20  1  0  0  0
 20 21  1  0  0  0
 21 22  2  0  0  0
 21  1  1  0  0  0
  1  2  2  0  0  0
  2  3  1  0  0  0
  3  6  1  0  0  0
  6  7  2  0  0  0
  7  8  1  0  0  0
  8  9  2  0  0  0
  9 10  1  0  0  0
 10 11  2  0  0  0
 11 12  1  0  0  0
  3  4  1  0  0  0
  4 13  1  0  0  0
 13 14  2  0  0  0
 14 15  1  0  0  0
 15 16  2  0  0  0
 16 17  1  0  0  0
 16 18  1  0  0  0
 18 19  2  0  0  0
  4  5  2  0  0  0
  5 31  1  0  0  0
 31 32  1  0  0  0
 32 33  1  0  0  0
 32 34  2  0  0  0
 30 25  1  0  0  0
  5  1  1  0  0  0
 11  6  1  0  0  0
 19 13  1  0  0  0
 20 23  1  0  0  0
 33 35  1  0  0  0
 33 36  1  0  0  0
M  END
> <minimizedAffinity>
-6.71044

> <CNNscore>
0.5772399902

> <CNNaffinity>
7.2574005127

> <CNN_VS>
4.1892619133

> <CNNaffinity_variance>
0.2894286811

$$$$
[H]c1nc([H])c(N([H])C(=O)c2nn(-c3c([H])c([H])c([H])c([H])c3Cl)c(-c3c([H])c([H])c(Cl)c([H])c3[H])c2C([H])([H])C(=O)N([H])[H])c(C([H])([H])[H])c1[H]


 36 39  0  0  0  0  0  0  0  0999 V2000
   56.3635   -5.1087   -8.2294 C   0  0  0  0  0  0  0  0  0  0  0  0
   56.6573   -5.3778   -6.9480 N   0  0  0  0  0  0  0  0  0  0  0  0
   55.5613   -5.3362   -6.1802 N   0  0  0  0  0  0  0  0  0  0  0  0
   54.4756   -5.0284   -6.9564 C   0  0  0  0  0  0  0  0  0  0  0  0
   54.9858   -4.8920   -8.2305 C   0  0  0  0  0  0  0  0  0  0  0  0
   55.6572   -5.5577   -4.7891 C   0  0  0  0  0  0  0  0  0  0  0  0
   55.9528   -4.5147   -3.9427 C   0  0  0  0  0  0  0  0  0  0  0  0
   56.0792   -4.7181   -2.5633 C   0  0  0  0  0  0  0  0  0  0  0  0
   55.9082   -5.9803   -2.0210 C   0  0  0  0  0  0  0  0  0  0  0  0
   55.6131   -7.0186   -2.8698 C   0  0  0  0  0  0  0  0  0  0  0  0
   55.4890   -6.8189   -4.2250 C   0  0  0  0  0  0  0  0  0  0  0  0
   55.1134   -8.1318   -5.3180 Cl  0  0  0  0  0  0  0  0  0  0  0  0
   53.1403   -4.7507   -6.4512 C   0  0  0  0  0  0  0  0  0  0  0  0
   52.2582   -3.8592   -7.0068 C   0  0  0  0  0  0  0  0  0  0  0  0
   50.9465   -3.6782   -6.5869 C   0  0  0  0  0  0  0  0  0  0  0  0
   50.4709   -4.4290   -5.5422 C   0  0  0  0  0  0  0  0  0  0  0  0
   48.8175   -4.1824   -5.0329 Cl  0  0  0  0  0  0  0  0  0  0  0  0
   51.3010   -5.3285   -4.9507 C   0  0  0  0  0  0  0  0  0  0  0  0
   52.6189   -5.4981   -5.3885 C   0  0  0  0  0  0  0  0  0  0  0  0
   56.9342   -4.3394  -10.5001 N   0  0  0  0  0  0  0  0  0  0  0  0
   57.3107   -5.0578   -9.3463 C   0  0  0  0  0  0  0  0  0  0  0  0
   58.3976   -5.6269   -9.2695 O   0  0  0  0  0  0  0  0  0  0  0  0
   55.9588   -3.8869  -10.4395 H   0  0  0  0  0  0  0  0  0  0  0  0
   55.4776   -3.6285  -12.7560 C   0  0  0  0  0  0  0  0  0  0  0  0
   56.9418   -3.7750  -12.8406 C   0  0  0  0  0  0  0  0  0  0  0  0
   57.5820   -3.5550  -14.0436 C   0  0  0  0  0  0  0  0  0  0  0  0
   58.9430   -3.6854  -14.1647 C   0  0  0  0  0  0  0  0  0  0  0  0
   59.6139   -4.0343  -13.0641 N   0  0  0  0  0  0  0  0  0  0  0  0
   59.0085   -4.2598  -11.8548 C   0  0  0  0  0  0  0  0  0  0  0  0
   57.6546   -4.1421  -11.6858 C   0  0  0  0  0  0  0  0  0  0  0  0
   54.2372   -4.6470   -9.5027 C   0  0  0  0  0  0  0  0  0  0  0  0
   53.8575   -3.1811   -9.4945 C   0  0  0  0  0  0  0  0  0  0  0  0
   54.7729   -2.2786   -8.9264 N   0  0  0  0  0  0  0  0  0  0  0  0
   52.7846   -2.7901   -9.9685 O   0  0  0  0  0  0  0  0  0  0  0  0
   55.1564   -2.3733   -7.9418 H   0  0  0  0  0  0  0  0  0  0  0  0
   55.1519   -1.4293   -9.4423 H   0  0  0  0  0  0  0  0  0  0  0  0
 24 25  1  0  0  0
 25 26  2  0  0  0
 26 27  1  0  0  0
 27 28  2  0  0  0
 28 29  1  0  0  0
 29 30  2  0  0  0
 30 20  1  0  0  0
 20 21  1  0  0  0
 21 22  2  0  0  0
 21  1  1  0  0  0
  1  2  2  0  0  0
  2  3  1  0  0  0
  3  6  1  0  0  0
  6  7  2  0  0  0
  7  8  1  0  0  0
  8  9  2  0  0  0
  9 10  1  0  0  0
 10 11  2  0  0  0
 11 12  1  0  0  0
  3  4  1  0  0  0
  4 13  1  0  0  0
 13 14  2  0  0  0
 14 15  1  0  0  0
 15 16  2  0  0  0
 16 17  1  0  0  0
 16 18  1  0  0  0
 18 19  2  0  0  0
  4  5  2  0  0  0
  5 31  1  0  0  0
 31 32  1  0  0  0
 32 33  1  0  0  0
 32 34  2  0  0  0
 30 25  1  0  0  0
  5  1  1  0  0  0
 11  6  1  0  0  0
 19 13  1  0  0  0
 20 23  1  0  0  0
 33 35  1  0  0  0
 33 36  1  0  0  0
M  END
> <minimizedAffinity>
-8.30129

> <CNNscore>
0.5690894127

> <CNNaffinity>
7.3687415123

> <CNN_VS>
4.1934728622

> <CNNaffinity_variance>
0.1386220902

$$$$
[H]c1nc([H])c(N([H])C(=O)c2nn(-c3c([H])c([H])c([H])c([H])c3Cl)c(-c3c([H])c([H])c(Cl)c([H])c3[H])c2C([H])([H])C(=O)N([H])[H])c(C([H])([H])[H])c1[H]


 36 39  0  0  0  0  0  0  0  0999 V2000
   56.0972   -4.0484   -9.8406 C   0  0  0  0  0  0  0  0  0  0  0  0
   54.7795   -4.0773   -9.5885 N   0  0  0  0  0  0  0  0  0  0  0  0
   54.5337   -4.4924   -8.3396 N   0  0  0  0  0  0  0  0  0  0  0  0
   55.7198   -4.7587   -7.7089 C   0  0  0  0  0  0  0  0  0  0  0  0
   56.6865   -4.4761   -8.6510 C   0  0  0  0  0  0  0  0  0  0  0  0
   53.2047   -4.6269   -7.8822 C   0  0  0  0  0  0  0  0  0  0  0  0
   52.7633   -5.8321   -7.3881 C   0  0  0  0  0  0  0  0  0  0  0  0
   51.4419   -5.9942   -6.9547 C   0  0  0  0  0  0  0  0  0  0  0  0
   50.5484   -4.9384   -7.0154 C   0  0  0  0  0  0  0  0  0  0  0  0
   50.9935   -3.7370   -7.5095 C   0  0  0  0  0  0  0  0  0  0  0  0
   52.2917   -3.5778   -7.9353 C   0  0  0  0  0  0  0  0  0  0  0  0
   52.8725   -2.0534   -8.5667 Cl  0  0  0  0  0  0  0  0  0  0  0  0
   55.8476   -5.3690   -6.3949 C   0  0  0  0  0  0  0  0  0  0  0  0
   55.9121   -4.6805   -5.2101 C   0  0  0  0  0  0  0  0  0  0  0  0
   55.9232   -5.2699   -3.9523 C   0  0  0  0  0  0  0  0  0  0  0  0
   55.8691   -6.6370   -3.8557 C   0  0  0  0  0  0  0  0  0  0  0  0
   55.8845   -7.3539   -2.2620 Cl  0  0  0  0  0  0  0  0  0  0  0  0
   55.8055   -7.3724   -4.9973 C   0  0  0  0  0  0  0  0  0  0  0  0
   55.7937   -6.7609   -6.2555 C   0  0  0  0  0  0  0  0  0  0  0  0
   56.4066   -4.3853  -12.2622 N   0  0  0  0  0  0  0  0  0  0  0  0
   56.7329   -3.6548  -11.1008 C   0  0  0  0  0  0  0  0  0  0  0  0
   57.5246   -2.7150  -11.1337 O   0  0  0  0  0  0  0  0  0  0  0  0
   55.7006   -5.1821  -12.0986 H   0  0  0  0  0  0  0  0  0  0  0  0
   55.0760   -5.7664  -14.2717 C   0  0  0  0  0  0  0  0  0  0  0  0
   56.2114   -4.8890  -14.6084 C   0  0  0  0  0  0  0  0  0  0  0  0
   56.6060   -4.7570  -15.9247 C   0  0  0  0  0  0  0  0  0  0  0  0
   57.6609   -3.9533  -16.2787 C   0  0  0  0  0  0  0  0  0  0  0  0
   58.2837   -3.3081  -15.2893 N   0  0  0  0  0  0  0  0  0  0  0  0
   57.9169   -3.4175  -13.9728 C   0  0  0  0  0  0  0  0  0  0  0  0
   56.8718   -4.2064  -13.5719 C   0  0  0  0  0  0  0  0  0  0  0  0
   58.1732   -4.4997   -8.4833 C   0  0  0  0  0  0  0  0  0  0  0  0
   58.6624   -5.7293   -9.2196 C   0  0  0  0  0  0  0  0  0  0  0  0
   59.7181   -6.4534   -8.6397 N   0  0  0  0  0  0  0  0  0  0  0  0
   58.1549   -6.0850  -10.2894 O   0  0  0  0  0  0  0  0  0  0  0  0
   60.6482   -6.0204   -8.3695 H   0  0  0  0  0  0  0  0  0  0  0  0
   59.6646   -7.4942   -8.4272 H   0  0  0  0  0  0  0  0  0  0  0  0
 24 25  1  0  0  0
 25 26  2  0  0  0
 26 27  1  0  0  0
 27 28  2  0  0  0
 28 29  1  0  0  0
 29 30  2  0  0  0
 30 20  1  0  0  0
 20 21  1  0  0  0
 21 22  2  0  0  0
 21  1  1  0  0  0
  1  2  2  0  0  0
  2  3  1  0  0  0
  3  6  1  0  0  0
  6  7  2  0  0  0
  7  8  1  0  0  0
  8  9  2  0  0  0
  9 10  1  0  0  0
 10 11  2  0  0  0
 11 12  1  0  0  0
  3  4  1  0  0  0
  4 13  1  0  0  0
 13 14  2  0  0  0
 14 15  1  0  0  0
 15 16  2  0  0  0
 16 17  1  0  0  0
 16 18  1  0  0  0
 18 19  2  0  0  0
  4  5  2  0  0  0
  5 31  1  0  0  0
 31 32  1  0  0  0
 32 33  1  0  0  0
 32 34  2  0  0  0
 30 25  1  0  0  0
  5  1  1  0  0  0
 11  6  1  0  0  0
 19 13  1  0  0  0
 20 23  1  0  0  0
 33 35  1  0  0  0
 33 36  1  0  0  0
M  END
> <minimizedAffinity>
-7.81163

> <CNNscore>
0.5185931325

> <CNNaffinity>
7.1816587448

> <CNN_VS>
3.7243587971

> <CNNaffinity_variance>
0.1882631034

$$$$
[H]c1nc([H])c(N([H])C(=O)c2nn(-c3c([H])c([H])c([H])c([H])c3Cl)c(-c3c([H])c([H])c(Cl)c([H])c3[H])c2C([H])([H])C(=O)N([H])[H])c(C([H])([H])[H])c1[H]


 36 39  0  0  0  0  0  0  0  0999 V2000
   56.0433   -3.9531   -9.8245 C   0  0  0  0  0  0  0  0  0  0  0  0
   54.7271   -3.9497   -9.5631 N   0  0  0  0  0  0  0  0  0  0  0  0
   54.4808   -4.3488   -8.3091 N   0  0  0  0  0  0  0  0  0  0  0  0
   55.6650   -4.6371   -7.6844 C   0  0  0  0  0  0  0  0  0  0  0  0
   56.6312   -4.3845   -8.6356 C   0  0  0  0  0  0  0  0  0  0  0  0
   53.1524   -4.4491   -7.8413 C   0  0  0  0  0  0  0  0  0  0  0  0
   52.3820   -3.3182   -7.7030 C   0  0  0  0  0  0  0  0  0  0  0  0
   51.0717   -3.3925   -7.2152 C   0  0  0  0  0  0  0  0  0  0  0  0
   50.5227   -4.6129   -6.8605 C   0  0  0  0  0  0  0  0  0  0  0  0
   51.2955   -5.7393   -7.0003 C   0  0  0  0  0  0  0  0  0  0  0  0
   52.5828   -5.6663   -7.4794 C   0  0  0  0  0  0  0  0  0  0  0  0
   53.5786   -7.0926   -7.6628 Cl  0  0  0  0  0  0  0  0  0  0  0  0
   55.7882   -5.2394   -6.3662 C   0  0  0  0  0  0  0  0  0  0  0  0
   56.1172   -6.5495   -6.1271 C   0  0  0  0  0  0  0  0  0  0  0  0
   56.3410   -7.0917   -4.8679 C   0  0  0  0  0  0  0  0  0  0  0  0
   56.2302   -6.2843   -3.7646 C   0  0  0  0  0  0  0  0  0  0  0  0
   56.5165   -6.9906   -2.1919 Cl  0  0  0  0  0  0  0  0  0  0  0  0
   55.9048   -4.9762   -3.9402 C   0  0  0  0  0  0  0  0  0  0  0  0
   55.6846   -4.4474   -5.2165 C   0  0  0  0  0  0  0  0  0  0  0  0
   56.4149   -4.3869  -12.2219 N   0  0  0  0  0  0  0  0  0  0  0  0
   56.6788   -3.5846  -11.0924 C   0  0  0  0  0  0  0  0  0  0  0  0
   57.4174   -2.6041  -11.1586 O   0  0  0  0  0  0  0  0  0  0  0  0
   55.7516   -5.2136  -12.0307 H   0  0  0  0  0  0  0  0  0  0  0  0
   55.0383   -5.7390  -14.2201 C   0  0  0  0  0  0  0  0  0  0  0  0
   56.2102   -4.9131  -14.5623 C   0  0  0  0  0  0  0  0  0  0  0  0
   56.6159   -4.8147  -15.8781 C   0  0  0  0  0  0  0  0  0  0  0  0
   57.7043   -4.0595  -16.2372 C   0  0  0  0  0  0  0  0  0  0  0  0
   58.3484   -3.4271  -15.2531 N   0  0  0  0  0  0  0  0  0  0  0  0
   57.9713   -3.5040  -13.9371 C   0  0  0  0  0  0  0  0  0  0  0  0
   56.8931   -4.2444  -13.5314 C   0  0  0  0  0  0  0  0  0  0  0  0
   58.1181   -4.4409   -8.4780 C   0  0  0  0  0  0  0  0  0  0  0  0
   58.5739   -5.6867   -9.2083 C   0  0  0  0  0  0  0  0  0  0  0  0
   59.6481   -6.4045   -8.6552 N   0  0  0  0  0  0  0  0  0  0  0  0
   58.0244   -6.0606  -10.2509 O   0  0  0  0  0  0  0  0  0  0  0  0
   60.5895   -5.9708   -8.4291 H   0  0  0  0  0  0  0  0  0  0  0  0
   59.5985   -7.4408   -8.4206 H   0  0  0  0  0  0  0  0  0  0  0  0
 24 25  1  0  0  0
 25 26  2  0  0  0
 26 27  1  0  0  0
 27 28  2  0  0  0
 28 29  1  0  0  0
 29 30  2  0  0  0
 30 20  1  0  0  0
 20 21  1  0  0  0
 21 22  2  0  0  0
 21  1  1  0  0  0
  1  2  2  0  0  0
  2  3  1  0  0  0
  3  6  1  0  0  0
  6  7  2  0  0  0
  7  8  1  0  0  0
  8  9  2  0  0  0
  9 10  1  0  0  0
 10 11  2  0  0  0
 11 12  1  0  0  0
  3  4  1  0  0  0
  4 13  1  0  0  0
 13 14  2  0  0  0
 14 15  1  0  0  0
 15 16  2  0  0  0
 16 17  1  0  0  0
 16 18  1  0  0  0
 18 19  2  0  0  0
  4  5  2  0  0  0
  5 31  1  0  0  0
 31 32  1  0  0  0
 32 33  1  0  0  0
 32 34  2  0  0  0
 30 25  1  0  0  0
  5  1  1  0  0  0
 11  6  1  0  0  0
 19 13  1  0  0  0
 20 23  1  0  0  0
 33 35  1  0  0  0
 33 36  1  0  0  0
M  END
> <minimizedAffinity>
-6.76766

> <CNNscore>
0.5175949335

> <CNNaffinity>
7.0820121765

> <CNN_VS>
3.6656136513

> <CNNaffinity_variance>
0.1883134693

$$$$
[H]c1nc([H])c(N([H])C(=O)c2nn(-c3c([H])c([H])c([H])c([H])c3Cl)c(-c3c([H])c([H])c(Cl)c([H])c3[H])c2C([H])([H])C(=O)N([H])[H])c(C([H])([H])[H])c1[H]


 36 39  0  0  0  0  0  0  0  0999 V2000
   54.1986   -3.6140   -9.2259 C   0  0  0  0  0  0  0  0  0  0  0  0
   54.4028   -3.6574  -10.5514 N   0  0  0  0  0  0  0  0  0  0  0  0
   55.5699   -4.2448  -10.8433 N   0  0  0  0  0  0  0  0  0  0  0  0
   56.1918   -4.6192   -9.6818 C   0  0  0  0  0  0  0  0  0  0  0  0
   55.3282   -4.2245   -8.6815 C   0  0  0  0  0  0  0  0  0  0  0  0
   55.9927   -4.3617  -12.1853 C   0  0  0  0  0  0  0  0  0  0  0  0
   55.3914   -5.2729  -13.0217 C   0  0  0  0  0  0  0  0  0  0  0  0
   55.8138   -5.4236  -14.3481 C   0  0  0  0  0  0  0  0  0  0  0  0
   56.8509   -4.6539  -14.8466 C   0  0  0  0  0  0  0  0  0  0  0  0
   57.4482   -3.7455  -14.0079 C   0  0  0  0  0  0  0  0  0  0  0  0
   57.0334   -3.5974  -12.7048 C   0  0  0  0  0  0  0  0  0  0  0  0
   57.7848   -2.4443  -11.6254 Cl  0  0  0  0  0  0  0  0  0  0  0  0
   57.5422   -5.1518   -9.5925 C   0  0  0  0  0  0  0  0  0  0  0  0
   58.3126   -5.5276  -10.6635 C   0  0  0  0  0  0  0  0  0  0  0  0
   59.6391   -5.9315  -10.5808 C   0  0  0  0  0  0  0  0  0  0  0  0
   60.2495   -5.9696   -9.3531 C   0  0  0  0  0  0  0  0  0  0  0  0
   61.9187   -6.4813   -9.2760 Cl  0  0  0  0  0  0  0  0  0  0  0  0
   59.5345   -5.6094   -8.2546 C   0  0  0  0  0  0  0  0  0  0  0  0
   58.1995   -5.2037   -8.3576 C   0  0  0  0  0  0  0  0  0  0  0  0
   52.3077   -3.8672   -7.6658 N   0  0  0  0  0  0  0  0  0  0  0  0
   53.0366   -3.0383   -8.5436 C   0  0  0  0  0  0  0  0  0  0  0  0
   52.7158   -1.8674   -8.7372 O   0  0  0  0  0  0  0  0  0  0  0  0
   52.6926   -4.8697   -7.5837 H   0  0  0  0  0  0  0  0  0  0  0  0
   51.8436   -5.4200   -5.4098 C   0  0  0  0  0  0  0  0  0  0  0  0
   50.9205   -4.3229   -5.7515 C   0  0  0  0  0  0  0  0  0  0  0  0
   49.8291   -4.0719   -4.9443 C   0  0  0  0  0  0  0  0  0  0  0  0
   48.9440   -3.0626   -5.2305 C   0  0  0  0  0  0  0  0  0  0  0  0
   49.1911   -2.3386   -6.3249 N   0  0  0  0  0  0  0  0  0  0  0  0
   50.2654   -2.5619   -7.1470 C   0  0  0  0  0  0  0  0  0  0  0  0
   51.1744   -3.5564   -6.9023 C   0  0  0  0  0  0  0  0  0  0  0  0
   55.4521   -4.4611   -7.2093 C   0  0  0  0  0  0  0  0  0  0  0  0
   55.0461   -5.9013   -6.9766 C   0  0  0  0  0  0  0  0  0  0  0  0
   55.8843   -6.6873   -6.1675 N   0  0  0  0  0  0  0  0  0  0  0  0
   54.0176   -6.3705   -7.4775 O   0  0  0  0  0  0  0  0  0  0  0  0
   56.9216   -6.8171   -6.3485 H   0  0  0  0  0  0  0  0  0  0  0  0
   55.5411   -7.2136   -5.3093 H   0  0  0  0  0  0  0  0  0  0  0  0
 24 25  1  0  0  0
 25 26  2  0  0  0
 26 27  1  0  0  0
 27 28  2  0  0  0
 28 29  1  0  0  0
 29 30  2  0  0  0
 30 20  1  0  0  0
 20 21  1  0  0  0
 21 22  2  0  0  0
 21  1  1  0  0  0
  1  2  2  0  0  0
  2  3  1  0  0  0
  3  6  1  0  0  0
  6  7  2  0  0  0
  7  8  1  0  0  0
  8  9  2  0  0  0
  9 10  1  0  0  0
 10 11  2  0  0  0
 11 12  1  0  0  0
  3  4  1  0  0  0
  4 13  1  0  0  0
 13 14  2  0  0  0
 14 15  1  0  0  0
 15 16  2  0  0  0
 16 17  1  0  0  0
 16 18  1  0  0  0
 18 19  2  0  0  0
  4  5  2  0  0  0
  5 31  1  0  0  0
 31 32  1  0  0  0
 32 33  1  0  0  0
 32 34  2  0  0  0
 30 25  1  0  0  0
  5  1  1  0  0  0
 11  6  1  0  0  0
 19 13  1  0  0  0
 20 23  1  0  0  0
 33 35  1  0  0  0
 33 36  1  0  0  0
M  END
> <minimizedAffinity>
-7.13401

> <CNNscore>
0.4976330400

> <CNNaffinity>
7.0765295029

> <CNN_VS>
3.5215148926

> <CNNaffinity_variance>
0.1600582302

$$$$
[H]c1nc([H])c(N([H])C(=O)c2nn(-c3c([H])c([H])c([H])c([H])c3Cl)c(-c3c([H])c([H])c(Cl)c([H])c3[H])c2C([H])([H])C(=O)N([H])[H])c(C([H])([H])[H])c1[H]


 36 39  0  0  0  0  0  0  0  0999 V2000
   50.9980   -5.2020   -4.5584 C   0  0  0  0  0  0  0  0  0  0  0  0
   52.1746   -5.6303   -4.0759 N   0  0  0  0  0  0  0  0  0  0  0  0
   53.1398   -5.5381   -4.9992 N   0  0  0  0  0  0  0  0  0  0  0  0
   52.6127   -5.0297   -6.1565 C   0  0  0  0  0  0  0  0  0  0  0  0
   51.2799   -4.8212   -5.8702 C   0  0  0  0  0  0  0  0  0  0  0  0
   54.4512   -5.9705   -4.7045 C   0  0  0  0  0  0  0  0  0  0  0  0
   54.6805   -7.2740   -4.3303 C   0  0  0  0  0  0  0  0  0  0  0  0
   55.9692   -7.7162   -4.0077 C   0  0  0  0  0  0  0  0  0  0  0  0
   57.0440   -6.8452   -4.0592 C   0  0  0  0  0  0  0  0  0  0  0  0
   56.8102   -5.5448   -4.4334 C   0  0  0  0  0  0  0  0  0  0  0  0
   55.5443   -5.1103   -4.7502 C   0  0  0  0  0  0  0  0  0  0  0  0
   55.2318   -3.4570   -5.2285 Cl  0  0  0  0  0  0  0  0  0  0  0  0
   53.3229   -4.9249   -7.4215 C   0  0  0  0  0  0  0  0  0  0  0  0
   52.8847   -4.2209   -8.5142 C   0  0  0  0  0  0  0  0  0  0  0  0
   53.6167   -4.0333   -9.6799 C   0  0  0  0  0  0  0  0  0  0  0  0
   54.8703   -4.5813   -9.7758 C   0  0  0  0  0  0  0  0  0  0  0  0
   55.7706   -4.3310  -11.2526 Cl  0  0  0  0  0  0  0  0  0  0  0  0
   55.3571   -5.2915   -8.7239 C   0  0  0  0  0  0  0  0  0  0  0  0
   54.6058   -5.4686   -7.5571 C   0  0  0  0  0  0  0  0  0  0  0  0
   48.7137   -4.3083   -4.3203 N   0  0  0  0  0  0  0  0  0  0  0  0
   49.7236   -5.1654   -3.8361 C   0  0  0  0  0  0  0  0  0  0  0  0
   49.5504   -5.8645   -2.8399 O   0  0  0  0  0  0  0  0  0  0  0  0
   48.9912   -3.7518   -5.1996 H   0  0  0  0  0  0  0  0  0  0  0  0
   46.8313   -6.2928   -4.8047 C   0  0  0  0  0  0  0  0  0  0  0  0
   46.4538   -5.0902   -4.0406 C   0  0  0  0  0  0  0  0  0  0  0  0
   45.1638   -4.9586   -3.5671 C   0  0  0  0  0  0  0  0  0  0  0  0
   44.7718   -3.8525   -2.8553 C   0  0  0  0  0  0  0  0  0  0  0  0
   45.6978   -2.9137   -2.6447 N   0  0  0  0  0  0  0  0  0  0  0  0
   46.9868   -3.0139   -3.1011 C   0  0  0  0  0  0  0  0  0  0  0  0
   47.4236   -4.0978   -3.8150 C   0  0  0  0  0  0  0  0  0  0  0  0
   50.2367   -4.1931   -6.7397 C   0  0  0  0  0  0  0  0  0  0  0  0
   50.3813   -2.6964   -6.5599 C   0  0  0  0  0  0  0  0  0  0  0  0
   51.0240   -1.9807   -7.5844 N   0  0  0  0  0  0  0  0  0  0  0  0
   49.9516   -2.1233   -5.5521 O   0  0  0  0  0  0  0  0  0  0  0  0
   51.9935   -2.2156   -7.9456 H   0  0  0  0  0  0  0  0  0  0  0  0
   50.5858   -1.1462   -8.0771 H   0  0  0  0  0  0  0  0  0  0  0  0
 24 25  1  0  0  0
 25 26  2  0  0  0
 26 27  1  0  0  0
 27 28  2  0  0  0
 28 29  1  0  0  0
 29 30  2  0  0  0
 30 20  1  0  0  0
 20 21  1  0  0  0
 21 22  2  0  0  0
 21  1  1  0  0  0
  1  2  2  0  0  0
  2  3  1  0  0  0
  3  6  1  0  0  0
  6  7  2  0  0  0
  7  8  1  0  0  0
  8  9  2  0  0  0
  9 10  1  0  0  0
 10 11  2  0  0  0
 11 12  1  0  0  0
  3  4  1  0  0  0
  4 13  1  0  0  0
 13 14  2  0  0  0
 14 15  1  0  0  0
 15 16  2  0  0  0
 16 17  1  0  0  0
 16 18  1  0  0  0
 18 19  2  0  0  0
  4  5  2  0  0  0
  5 31  1  0  0  0
 31 32  1  0  0  0
 32 33  1  0  0  0
 32 34  2  0  0  0
 30 25  1  0  0  0
  5  1  1  0  0  0
 11  6  1  0  0  0
 19 13  1  0  0  0
 20 23  1  0  0  0
 33 35  1  0  0  0
 33 36  1  0  0  0
M  END
> <minimizedAffinity>
7.66137

> <CNNscore>
0.4595857263

> <CNNaffinity>
7.3826994896

> <CNN_VS>
3.3929831982

> <CNNaffinity_variance>
0.8135878444

$$$$
[H]c1nc([H])c(N([H])C(=O)c2nn(-c3c([H])c([H])c([H])c([H])c3Cl)c(-c3c([H])c([H])c(Cl)c([H])c3[H])c2C([H])([H])C(=O)N([H])[H])c(C([H])([H])[H])c1[H]


 36 39  0  0  0  0  0  0  0  0999 V2000
   57.6831   -5.4119   -8.5998 C   0  0  0  0  0  0  0  0  0  0  0  0
   57.5492   -5.5376   -7.2705 N   0  0  0  0  0  0  0  0  0  0  0  0
   56.3032   -5.2436   -6.8788 N   0  0  0  0  0  0  0  0  0  0  0  0
   55.5524   -4.9040   -7.9727 C   0  0  0  0  0  0  0  0  0  0  0  0
   56.4202   -5.0150   -9.0389 C   0  0  0  0  0  0  0  0  0  0  0  0
   55.9593   -5.2809   -5.5098 C   0  0  0  0  0  0  0  0  0  0  0  0
   56.2461   -4.2095   -4.6966 C   0  0  0  0  0  0  0  0  0  0  0  0
   55.9382   -4.2370   -3.3311 C   0  0  0  0  0  0  0  0  0  0  0  0
   55.3355   -5.3496   -2.7694 C   0  0  0  0  0  0  0  0  0  0  0  0
   55.0510   -6.4168   -3.5852 C   0  0  0  0  0  0  0  0  0  0  0  0
   55.3536   -6.3899   -4.9267 C   0  0  0  0  0  0  0  0  0  0  0  0
   54.9968   -7.7418   -5.9777 Cl  0  0  0  0  0  0  0  0  0  0  0  0
   54.1954   -4.3827   -7.9244 C   0  0  0  0  0  0  0  0  0  0  0  0
   53.1618   -4.9427   -7.2173 C   0  0  0  0  0  0  0  0  0  0  0  0
   51.8980   -4.3815   -7.0857 C   0  0  0  0  0  0  0  0  0  0  0  0
   51.6335   -3.1826   -7.6973 C   0  0  0  0  0  0  0  0  0  0  0  0
   50.0358   -2.4978   -7.5166 Cl  0  0  0  0  0  0  0  0  0  0  0  0
   52.6197   -2.5810   -8.4137 C   0  0  0  0  0  0  0  0  0  0  0  0
   53.8873   -3.1606   -8.5337 C   0  0  0  0  0  0  0  0  0  0  0  0
   59.9882   -6.2738   -8.7312 N   0  0  0  0  0  0  0  0  0  0  0  0
   58.9039   -5.6436   -9.3764 C   0  0  0  0  0  0  0  0  0  0  0  0
   58.9704   -5.2957  -10.5535 O   0  0  0  0  0  0  0  0  0  0  0  0
   59.8014   -6.5290   -7.7017 H   0  0  0  0  0  0  0  0  0  0  0  0
   61.7766   -7.5142   -7.0052 C   0  0  0  0  0  0  0  0  0  0  0  0
   62.1684   -7.2398   -8.3993 C   0  0  0  0  0  0  0  0  0  0  0  0
   63.4247   -7.6043   -8.8403 C   0  0  0  0  0  0  0  0  0  0  0  0
   63.8291   -7.3625  -10.1295 C   0  0  0  0  0  0  0  0  0  0  0  0
   62.9491   -6.7592  -10.9325 N   0  0  0  0  0  0  0  0  0  0  0  0
   61.6944   -6.3847  -10.5259 C   0  0  0  0  0  0  0  0  0  0  0  0
   61.2470   -6.6050   -9.2504 C   0  0  0  0  0  0  0  0  0  0  0  0
   56.1183   -4.8509  -10.4952 C   0  0  0  0  0  0  0  0  0  0  0  0
   56.5924   -3.4629  -10.8716 C   0  0  0  0  0  0  0  0  0  0  0  0
   57.1713   -3.2991  -12.1417 N   0  0  0  0  0  0  0  0  0  0  0  0
   56.4761   -2.5086  -10.0941 O   0  0  0  0  0  0  0  0  0  0  0  0
   57.9921   -3.8733  -12.4913 H   0  0  0  0  0  0  0  0  0  0  0  0
   56.8293   -2.5844  -12.8513 H   0  0  0  0  0  0  0  0  0  0  0  0
 24 25  1  0  0  0
 25 26  2  0  0  0
 26 27  1  0  0  0
 27 28  2  0  0  0
 28 29  1  0  0  0
 29 30  2  0  0  0
 30 20  1  0  0  0
 20 21  1  0  0  0
 21 22  2  0  0  0
 21  1  1  0  0  0
  1  2  2  0  0  0
  2  3  1  0  0  0
  3  6  1  0  0  0
  6  7  2  0  0  0
  7  8  1  0  0  0
  8  9  2  0  0  0
  9 10  1  0  0  0
 10 11  2  0  0  0
 11 12  1  0  0  0
  3  4  1  0  0  0
  4 13  1  0  0  0
 13 14  2  0  0  0
 14 15  1  0  0  0
 15 16  2  0  0  0
 16 17  1  0  0  0
 16 18  1  0  0  0
 18 19  2  0  0  0
  4  5  2  0  0  0
  5 31  1  0  0  0
 31 32  1  0  0  0
 32 33  1  0  0  0
 32 34  2  0  0  0
 30 25  1  0  0  0
  5  1  1  0  0  0
 11  6  1  0  0  0
 19 13  1  0  0  0
 20 23  1  0  0  0
 33 35  1  0  0  0
 33 36  1  0  0  0
M  END
> <minimizedAffinity>
-7.87355

> <CNNscore>
0.4562841952

> <CNNaffinity>
7.1903142929

> <CNN_VS>
3.2808268070

> <CNNaffinity_variance>
0.1746556461

$$$$
[H]OC([H])([H])C([H])([H])n1c(C2([H])C([H])([H])C([H])([H])N(c3nc([H])nc(N([H])[H])c3C#N)C([H])([H])C2([H])[H])nc(-c2c([H])c([H])c(F)c(C([H])([H])[H])c2[H])c1[H]


 34 37  0  0  0  0  0  0  0  0999 V2000
   56.4663   -4.2792  -10.9094 C   0  0  0  0  0  0  0  0  0  0  0  0
   57.1675   -4.5546   -9.7591 C   0  0  0  0  0  0  0  0  0  0  0  0
   56.2423   -4.7602   -8.7688 N   0  0  0  0  0  0  0  0  0  0  0  0
   55.0175   -4.6185   -9.2814 C   0  0  0  0  0  0  0  0  0  0  0  0
   55.1781   -4.3268  -10.5823 N   0  0  0  0  0  0  0  0  0  0  0  0
   56.1332   -3.4884  -15.8362 C   0  0  0  0  0  0  0  0  0  0  0  0
   56.9242   -3.6124  -14.5872 C   0  0  0  0  0  0  0  0  0  0  0  0
   56.3240   -3.8838  -13.3572 C   0  0  0  0  0  0  0  0  0  0  0  0
   57.0609   -3.9966  -12.2094 C   0  0  0  0  0  0  0  0  0  0  0  0
   58.4276   -3.8380  -12.2729 C   0  0  0  0  0  0  0  0  0  0  0  0
   59.0494   -3.5689  -13.4758 C   0  0  0  0  0  0  0  0  0  0  0  0
   58.2936   -3.4562  -14.6347 C   0  0  0  0  0  0  0  0  0  0  0  0
   58.9520   -3.1888  -15.8036 F   0  0  0  0  0  0  0  0  0  0  0  0
   53.7377   -4.7448   -8.5880 C   0  0  0  0  0  0  0  0  0  0  0  0
   53.4223   -3.5083   -7.7684 C   0  0  0  0  0  0  0  0  0  0  0  0
   51.9395   -3.5894   -7.5045 C   0  0  0  0  0  0  0  0  0  0  0  0
   51.6684   -4.7985   -6.6933 N   0  0  0  0  0  0  0  0  0  0  0  0
   52.2818   -6.0253   -7.0676 C   0  0  0  0  0  0  0  0  0  0  0  0
   53.7237   -5.8762   -7.5819 C   0  0  0  0  0  0  0  0  0  0  0  0
   50.8224   -4.5623   -5.5809 C   0  0  0  0  0  0  0  0  0  0  0  0
   51.0058   -5.2485   -4.4084 N   0  0  0  0  0  0  0  0  0  0  0  0
   50.2033   -5.0776   -3.3550 C   0  0  0  0  0  0  0  0  0  0  0  0
   49.1767   -4.2266   -3.3876 N   0  0  0  0  0  0  0  0  0  0  0  0
   48.9345   -3.5192   -4.4992 C   0  0  0  0  0  0  0  0  0  0  0  0
   47.8474   -2.5939   -4.5875 N   0  0  0  0  0  0  0  0  0  0  0  0
   49.7807   -3.6973   -5.6127 C   0  0  0  0  0  0  0  0  0  0  0  0
   46.8548   -2.9592   -4.5956 H   0  0  0  0  0  0  0  0  0  0  0  0
   47.9767   -1.5653   -4.6452 H   0  0  0  0  0  0  0  0  0  0  0  0
   49.5065   -2.8818   -6.7714 C   0  0  0  0  0  0  0  0  0  0  0  0
   49.2696   -2.2067   -7.6852 N   0  0  0  0  0  0  0  0  0  0  0  0
   56.6327   -5.0791   -7.4277 C   0  0  0  0  0  0  0  0  0  0  0  0
   56.5713   -3.8408   -6.5840 C   0  0  0  0  0  0  0  0  0  0  0  0
   56.0825   -4.0159   -5.3152 O   0  0  0  0  0  0  0  0  0  0  0  0
   56.6354   -3.5611   -4.6124 H   0  0  0  0  0  0  0  0  0  0  0  0
  6  7  1  0  0  0
  7  8  2  0  0  0
  8  9  1  0  0  0
  9  1  1  0  0  0
  1  2  2  0  0  0
  2  3  1  0  0  0
  3 31  1  0  0  0
 31 32  1  0  0  0
 32 33  1  0  0  0
  3  4  1  0  0  0
  4 14  1  0  0  0
 14 15  1  0  0  0
 15 16  1  0  0  0
 16 17  1  0  0  0
 17 20  1  0  0  0
 20 21  2  0  0  0
 21 22  1  0  0  0
 22 23  2  0  0  0
 23 24  1  0  0  0
 24 25  1  0  0  0
 24 26  2  0  0  0
 26 29  1  0  0  0
 29 30  3  0  0  0
 17 18  1  0  0  0
 18 19  1  0  0  0
  4  5  2  0  0  0
  9 10  2  0  0  0
 10 11  1  0  0  0
 11 12  2  0  0  0
 12 13  1  0  0  0
 12  7  1  0  0  0
  5  1  1  0  0  0
 19 14  1  0  0  0
 26 20  1  0  0  0
 33 34  1  0  0  0
 25 27  1  0  0  0
 25 28  1  0  0  0
M  END
> <minimizedAffinity>
-8.59065

> <CNNscore>
0.6163266301

> <CNNaffinity>
7.2982940674

> <CNN_VS>
4.4981331825

> <CNNaffinity_variance>
0.0709995553

$$$$
[H]OC([H])([H])C([H])([H])n1c(C2([H])C([H])([H])C([H])([H])N(c3nc([H])nc(N([H])[H])c3C#N)C([H])([H])C2([H])[H])nc(-c2c([H])c([H])c(F)c(C([H])([H])[H])c2[H])c1[H]


 34 37  0  0  0  0  0  0  0  0999 V2000
   56.3829   -3.9254  -11.1248 C   0  0  0  0  0  0  0  0  0  0  0  0
   57.0165   -3.9845   -9.9060 C   0  0  0  0  0  0  0  0  0  0  0  0
   56.0375   -4.1039   -8.9541 N   0  0  0  0  0  0  0  0  0  0  0  0
   54.8453   -4.1183   -9.5554 C   0  0  0  0  0  0  0  0  0  0  0  0
   55.0798   -4.0088  -10.8731 N   0  0  0  0  0  0  0  0  0  0  0  0
   56.3136   -3.5437  -16.1107 C   0  0  0  0  0  0  0  0  0  0  0  0
   57.0408   -3.6114  -14.8193 C   0  0  0  0  0  0  0  0  0  0  0  0
   56.3718   -3.7348  -13.6011 C   0  0  0  0  0  0  0  0  0  0  0  0
   57.0500   -3.7965  -12.4139 C   0  0  0  0  0  0  0  0  0  0  0  0
   58.4260   -3.7351  -12.4249 C   0  0  0  0  0  0  0  0  0  0  0  0
   59.1152   -3.6130  -13.6149 C   0  0  0  0  0  0  0  0  0  0  0  0
   58.4185   -3.5511  -14.8141 C   0  0  0  0  0  0  0  0  0  0  0  0
   59.1427   -3.4302  -15.9684 F   0  0  0  0  0  0  0  0  0  0  0  0
   53.5294   -4.2257   -8.9299 C   0  0  0  0  0  0  0  0  0  0  0  0
   53.1857   -2.9806   -8.1350 C   0  0  0  0  0  0  0  0  0  0  0  0
   51.6902   -3.0431   -7.9493 C   0  0  0  0  0  0  0  0  0  0  0  0
   51.3625   -4.2439   -7.1469 N   0  0  0  0  0  0  0  0  0  0  0  0
   51.9803   -5.4800   -7.4814 C   0  0  0  0  0  0  0  0  0  0  0  0
   53.4490   -5.3506   -7.9197 C   0  0  0  0  0  0  0  0  0  0  0  0
   50.4618   -3.9913   -6.0820 C   0  0  0  0  0  0  0  0  0  0  0  0
   49.4907   -3.0315   -6.2043 N   0  0  0  0  0  0  0  0  0  0  0  0
   48.6513   -2.7424   -5.2068 C   0  0  0  0  0  0  0  0  0  0  0  0
   48.7134   -3.3748   -4.0340 N   0  0  0  0  0  0  0  0  0  0  0  0
   49.6362   -4.3263   -3.8397 C   0  0  0  0  0  0  0  0  0  0  0  0
   49.7461   -5.0345   -2.6019 N   0  0  0  0  0  0  0  0  0  0  0  0
   50.5232   -4.6339   -4.8914 C   0  0  0  0  0  0  0  0  0  0  0  0
   50.0827   -4.5226   -1.7397 H   0  0  0  0  0  0  0  0  0  0  0  0
   49.5110   -6.0404   -2.4970 H   0  0  0  0  0  0  0  0  0  0  0  0
   51.4706   -5.6954   -4.6499 C   0  0  0  0  0  0  0  0  0  0  0  0
   52.2330   -6.5412   -4.4256 N   0  0  0  0  0  0  0  0  0  0  0  0
   56.3506   -4.1985   -7.5592 C   0  0  0  0  0  0  0  0  0  0  0  0
   57.0937   -5.4755   -7.3017 C   0  0  0  0  0  0  0  0  0  0  0  0
   56.5354   -6.3029   -6.3620 O   0  0  0  0  0  0  0  0  0  0  0  0
   56.4976   -7.2623   -6.6527 H   0  0  0  0  0  0  0  0  0  0  0  0
  6  7  1  0  0  0
  7  8  2  0  0  0
  8  9  1  0  0  0
  9  1  1  0  0  0
  1  2  2  0  0  0
  2  3  1  0  0  0
  3 31  1  0  0  0
 31 32  1  0  0  0
 32 33  1  0  0  0
  3  4  1  0  0  0
  4 14  1  0  0  0
 14 15  1  0  0  0
 15 16  1  0  0  0
 16 17  1  0  0  0
 17 20  1  0  0  0
 20 21  2  0  0  0
 21 22  1  0  0  0
 22 23  2  0  0  0
 23 24  1  0  0  0
 24 25  1  0  0  0
 24 26  2  0  0  0
 26 29  1  0  0  0
 29 30  3  0  0  0
 17 18  1  0  0  0
 18 19  1  0  0  0
  4  5  2  0  0  0
  9 10  2  0  0  0
 10 11  1  0  0  0
 11 12  2  0  0  0
 12 13  1  0  0  0
 12  7  1  0  0  0
  5  1  1  0  0  0
 19 14  1  0  0  0
 26 20  1  0  0  0
 33 34  1  0  0  0
 25 27  1  0  0  0
 25 28  1  0  0  0
M  END
> <minimizedAffinity>
-9.00284

> <CNNscore>
0.5080022812

> <CNNaffinity>
7.0875267982

> <CNN_VS>
3.6004798412

> <CNNaffinity_variance>
0.0746828169

$$$$
[H]OC([H])([H])C([H])([H])n1c(C2([H])C([H])([H])C([H])([H])N(c3nc([H])nc(N([H])[H])c3C#N)C([H])([H])C2([H])[H])nc(-c2c([H])c([H])c(F)c(C([H])([H])[H])c2[H])c1[H]


 34 37  0  0  0  0  0  0  0  0999 V2000
   57.2757   -4.2742  -11.8646 C   0  0  0  0  0  0  0  0  0  0  0  0
   58.3413   -4.6211  -11.0679 C   0  0  0  0  0  0  0  0  0  0  0  0
   57.8310   -4.9314   -9.8340 N   0  0  0  0  0  0  0  0  0  0  0  0
   56.5043   -4.7836   -9.8621 C   0  0  0  0  0  0  0  0  0  0  0  0
   56.1897   -4.3842  -11.1050 N   0  0  0  0  0  0  0  0  0  0  0  0
   59.8857   -2.8499  -15.8856 C   0  0  0  0  0  0  0  0  0  0  0  0
   58.6053   -3.1833  -15.2146 C   0  0  0  0  0  0  0  0  0  0  0  0
   58.5522   -3.5656  -13.8738 C   0  0  0  0  0  0  0  0  0  0  0  0
   57.3667   -3.8718  -13.2622 C   0  0  0  0  0  0  0  0  0  0  0  0
   56.1996   -3.7999  -13.9901 C   0  0  0  0  0  0  0  0  0  0  0  0
   56.2210   -3.4247  -15.3185 C   0  0  0  0  0  0  0  0  0  0  0  0
   57.4283   -3.1161  -15.9302 C   0  0  0  0  0  0  0  0  0  0  0  0
   57.4017   -2.7493  -17.2479 F   0  0  0  0  0  0  0  0  0  0  0  0
   55.5569   -5.0011   -8.7714 C   0  0  0  0  0  0  0  0  0  0  0  0
   54.1227   -4.9751   -9.2639 C   0  0  0  0  0  0  0  0  0  0  0  0
   53.3281   -5.6446   -8.1707 C   0  0  0  0  0  0  0  0  0  0  0  0
   53.4388   -4.8306   -6.9385 N   0  0  0  0  0  0  0  0  0  0  0  0
   54.7194   -4.3532   -6.5466 C   0  0  0  0  0  0  0  0  0  0  0  0
   55.6126   -3.9138   -7.7192 C   0  0  0  0  0  0  0  0  0  0  0  0
   52.1974   -4.5932   -6.2970 C   0  0  0  0  0  0  0  0  0  0  0  0
   51.8292   -5.3271   -5.1993 N   0  0  0  0  0  0  0  0  0  0  0  0
   50.6509   -5.1549   -4.5951 C   0  0  0  0  0  0  0  0  0  0  0  0
   49.7662   -4.2560   -5.0292 N   0  0  0  0  0  0  0  0  0  0  0  0
   50.0555   -3.5003   -6.0969 C   0  0  0  0  0  0  0  0  0  0  0  0
   49.1429   -2.5224   -6.6035 N   0  0  0  0  0  0  0  0  0  0  0  0
   51.2991   -3.6797   -6.7363 C   0  0  0  0  0  0  0  0  0  0  0  0
   48.2449   -2.8402   -7.0633 H   0  0  0  0  0  0  0  0  0  0  0  0
   49.3123   -1.4997   -6.5460 H   0  0  0  0  0  0  0  0  0  0  0  0
   51.5832   -2.8129   -7.8547 C   0  0  0  0  0  0  0  0  0  0  0  0
   51.8397   -2.1102   -8.7420 N   0  0  0  0  0  0  0  0  0  0  0  0
   58.6745   -5.3457   -8.7525 C   0  0  0  0  0  0  0  0  0  0  0  0
   59.9075   -5.9968   -9.3047 C   0  0  0  0  0  0  0  0  0  0  0  0
   59.7665   -7.3103   -9.6712 O   0  0  0  0  0  0  0  0  0  0  0  0
   60.1666   -7.5155  -10.5680 H   0  0  0  0  0  0  0  0  0  0  0  0
  6  7  1  0  0  0
  7  8  2  0  0  0
  8  9  1  0  0  0
  9  1  1  0  0  0
  1  2  2  0  0  0
  2  3  1  0  0  0
  3 31  1  0  0  0
 31 32  1  0  0  0
 32 33  1  0  0  0
  3  4  1  0  0  0
  4 14  1  0  0  0
 14 15  1  0  0  0
 15 16  1  0  0  0
 16 17  1  0  0  0
 17 20  1  0  0  0
 20 21  2  0  0  0
 21 22  1  0  0  0
 22 23  2  0  0  0
 23 24  1  0  0  0
 24 25  1  0  0  0
 24 26  2  0  0  0
 26 29  1  0  0  0
 29 30  3  0  0  0
 17 18  1  0  0  0
 18 19  1  0  0  0
  4  5  2  0  0  0
  9 10  2  0  0  0
 10 11  1  0  0  0
 11 12  2  0  0  0
 12 13  1  0  0  0
 12  7  1  0  0  0
  5  1  1  0  0  0
 19 14  1  0  0  0
 26 20  1  0  0  0
 33 34  1  0  0  0
 25 27  1  0  0  0
 25 28  1  0  0  0
M  END
> <minimizedAffinity>
-7.87977

> <CNNscore>
0.4267303348

> <CNNaffinity>
6.9612360001

> <CNN_VS>
2.9705705643

> <CNNaffinity_variance>
0.0381650850

$$$$
[H]OC([H])([H])C([H])([H])n1c(C2([H])C([H])([H])C([H])([H])N(c3nc([H])nc(N([H])[H])c3C#N)C([H])([H])C2([H])[H])nc(-c2c([H])c([H])c(F)c(C([H])([H])[H])c2[H])c1[H]


 34 37  0  0  0  0  0  0  0  0999 V2000
   60.1116   -6.0206   -9.0614 C   0  0  0  0  0  0  0  0  0  0  0  0
   59.6859   -5.8142  -10.3524 C   0  0  0  0  0  0  0  0  0  0  0  0
   58.4165   -5.3026  -10.2757 N   0  0  0  0  0  0  0  0  0  0  0  0
   58.0674   -5.1955   -8.9913 C   0  0  0  0  0  0  0  0  0  0  0  0
   59.1121   -5.6371   -8.2725 N   0  0  0  0  0  0  0  0  0  0  0  0
   64.8493   -5.4579   -7.5625 C   0  0  0  0  0  0  0  0  0  0  0  0
   63.7003   -6.3092   -7.9575 C   0  0  0  0  0  0  0  0  0  0  0  0
   62.4672   -5.7643   -8.3172 C   0  0  0  0  0  0  0  0  0  0  0  0
   61.4120   -6.5566   -8.6804 C   0  0  0  0  0  0  0  0  0  0  0  0
   61.5739   -7.9244   -8.6903 C   0  0  0  0  0  0  0  0  0  0  0  0
   62.7824   -8.4922   -8.3393 C   0  0  0  0  0  0  0  0  0  0  0  0
   63.8470   -7.6803   -7.9723 C   0  0  0  0  0  0  0  0  0  0  0  0
   65.0254   -8.2865   -7.6324 F   0  0  0  0  0  0  0  0  0  0  0  0
   56.8044   -4.7039   -8.4458 C   0  0  0  0  0  0  0  0  0  0  0  0
   56.3211   -5.5641   -7.2940 C   0  0  0  0  0  0  0  0  0  0  0  0
   55.3107   -4.7082   -6.5719 C   0  0  0  0  0  0  0  0  0  0  0  0
   54.1802   -4.4349   -7.4887 N   0  0  0  0  0  0  0  0  0  0  0  0
   54.4629   -4.0365   -8.8239 C   0  0  0  0  0  0  0  0  0  0  0  0
   55.6726   -4.7505   -9.4505 C   0  0  0  0  0  0  0  0  0  0  0  0
   52.9064   -4.6457   -6.9039 C   0  0  0  0  0  0  0  0  0  0  0  0
   52.7087   -5.6719   -6.0167 N   0  0  0  0  0  0  0  0  0  0  0  0
   51.5128   -5.9212   -5.4774 C   0  0  0  0  0  0  0  0  0  0  0  0
   50.4430   -5.1818   -5.7743 N   0  0  0  0  0  0  0  0  0  0  0  0
   50.5583   -4.1603   -6.6333 C   0  0  0  0  0  0  0  0  0  0  0  0
   49.4435   -3.3367   -6.9862 N   0  0  0  0  0  0  0  0  0  0  0  0
   51.8200   -3.8946   -7.2037 C   0  0  0  0  0  0  0  0  0  0  0  0
   48.6600   -3.7457   -7.5672 H   0  0  0  0  0  0  0  0  0  0  0  0
   49.3556   -2.3423   -6.7007 H   0  0  0  0  0  0  0  0  0  0  0  0
   51.9040   -2.7579   -8.0889 C   0  0  0  0  0  0  0  0  0  0  0  0
   51.9877   -1.8612   -8.8208 N   0  0  0  0  0  0  0  0  0  0  0  0
   57.6693   -4.9623  -11.4498 C   0  0  0  0  0  0  0  0  0  0  0  0
   58.1474   -3.6428  -11.9786 C   0  0  0  0  0  0  0  0  0  0  0  0
   57.3661   -2.5623  -11.6600 O   0  0  0  0  0  0  0  0  0  0  0  0
   57.8951   -1.7738  -11.3363 H   0  0  0  0  0  0  0  0  0  0  0  0
  6  7  1  0  0  0
  7  8  2  0  0  0
  8  9  1  0  0  0
  9  1  1  0  0  0
  1  2  2  0  0  0
  2  3  1  0  0  0
  3 31  1  0  0  0
 31 32  1  0  0  0
 32 33  1  0  0  0
  3  4  1  0  0  0
  4 14  1  0  0  0
 14 15  1  0  0  0
 15 16  1  0  0  0
 16 17  1  0  0  0
 17 20  1  0  0  0
 20 21  2  0  0  0
 21 22  1  0  0  0
 22 23  2  0  0  0
 23 24  1  0  0  0
 24 25  1  0  0  0
 24 26  2  0  0  0
 26 29  1  0  0  0
 29 30  3  0  0  0
 17 18  1  0  0  0
 18 19  1  0  0  0
  4  5  2  0  0  0
  9 10  2  0  0  0
 10 11  1  0  0  0
 11 12  2  0  0  0
 12 13  1  0  0  0
 12  7  1  0  0  0
  5  1  1  0  0  0
 19 14  1  0  0  0
 26 20  1  0  0  0
 33 34  1  0  0  0
 25 27  1  0  0  0
 25 28  1  0  0  0
M  END
> <minimizedAffinity>
-8.13419

> <CNNscore>
0.3014889956

> <CNNaffinity>
6.7387900352

> <CNN_VS>
2.0316710472

> <CNNaffinity_variance>
0.0680247098

$$$$
[H]OC([H])([H])C([H])([H])n1c(C2([H])C([H])([H])C([H])([H])N(c3nc([H])nc(N([H])[H])c3C#N)C([H])([H])C2([H])[H])nc(-c2c([H])c([H])c(F)c(C([H])([H])[H])c2[H])c1[H]


 34 37  0  0  0  0  0  0  0  0999 V2000
   56.1725   -4.5820   -9.3107 C   0  0  0  0  0  0  0  0  0  0  0  0
   56.9140   -4.6653   -8.1558 C   0  0  0  0  0  0  0  0  0  0  0  0
   56.0368   -4.9395   -7.1388 N   0  0  0  0  0  0  0  0  0  0  0  0
   54.8020   -5.0230   -7.6399 C   0  0  0  0  0  0  0  0  0  0  0  0
   54.9087   -4.8026   -8.9602 N   0  0  0  0  0  0  0  0  0  0  0  0
   59.9766   -4.1338  -12.5259 C   0  0  0  0  0  0  0  0  0  0  0  0
   58.5290   -4.0823  -12.2051 C   0  0  0  0  0  0  0  0  0  0  0  0
   58.0467   -4.3538  -10.9243 C   0  0  0  0  0  0  0  0  0  0  0  0
   56.7095   -4.3043  -10.6366 C   0  0  0  0  0  0  0  0  0  0  0  0
   55.8209   -3.9783  -11.6372 C   0  0  0  0  0  0  0  0  0  0  0  0
   56.2689   -3.7045  -12.9141 C   0  0  0  0  0  0  0  0  0  0  0  0
   57.6270   -3.7574  -13.1964 C   0  0  0  0  0  0  0  0  0  0  0  0
   58.0252   -3.4787  -14.4752 F   0  0  0  0  0  0  0  0  0  0  0  0
   53.5606   -5.2940   -6.9187 C   0  0  0  0  0  0  0  0  0  0  0  0
   52.4943   -4.2631   -7.2355 C   0  0  0  0  0  0  0  0  0  0  0  0
   51.1984   -4.9059   -6.8084 C   0  0  0  0  0  0  0  0  0  0  0  0
   51.2423   -5.1334   -5.3456 N   0  0  0  0  0  0  0  0  0  0  0  0
   52.4139   -5.7035   -4.7766 C   0  0  0  0  0  0  0  0  0  0  0  0
   53.7250   -5.2151   -5.4157 C   0  0  0  0  0  0  0  0  0  0  0  0
   50.0745   -4.7059   -4.6656 C   0  0  0  0  0  0  0  0  0  0  0  0
   49.6249   -5.3820   -3.5612 N   0  0  0  0  0  0  0  0  0  0  0  0
   48.5078   -5.0285   -2.9207 C   0  0  0  0  0  0  0  0  0  0  0  0
   47.7673   -3.9946   -3.3231 N   0  0  0  0  0  0  0  0  0  0  0  0
   48.1434   -3.2846   -4.3951 C   0  0  0  0  0  0  0  0  0  0  0  0
   47.3860   -2.1676   -4.8687 N   0  0  0  0  0  0  0  0  0  0  0  0
   49.3228   -3.6553   -5.0727 C   0  0  0  0  0  0  0  0  0  0  0  0
   46.4356   -2.3321   -5.3028 H   0  0  0  0  0  0  0  0  0  0  0  0
   47.7196   -1.1861   -4.8109 H   0  0  0  0  0  0  0  0  0  0  0  0
   49.7103   -2.8343   -6.1946 C   0  0  0  0  0  0  0  0  0  0  0  0
   50.0014   -2.1527   -7.0877 N   0  0  0  0  0  0  0  0  0  0  0  0
   56.4790   -5.0997   -5.7854 C   0  0  0  0  0  0  0  0  0  0  0  0
   56.9641   -6.5044   -5.5837 C   0  0  0  0  0  0  0  0  0  0  0  0
   56.0460   -7.4882   -5.8455 O   0  0  0  0  0  0  0  0  0  0  0  0
   56.4174   -8.2383   -6.3986 H   0  0  0  0  0  0  0  0  0  0  0  0
  6  7  1  0  0  0
  7  8  2  0  0  0
  8  9  1  0  0  0
  9  1  1  0  0  0
  1  2  2  0  0  0
  2  3  1  0  0  0
  3 31  1  0  0  0
 31 32  1  0  0  0
 32 33  1  0  0  0
  3  4  1  0  0  0
  4 14  1  0  0  0
 14 15  1  0  0  0
 15 16  1  0  0  0
 16 17  1  0  0  0
 17 20  1  0  0  0
 20 21  2  0  0  0
 21 22  1  0  0  0
 22 23  2  0  0  0
 23 24  1  0  0  0
 24 25  1  0  0  0
 24 26  2  0  0  0
 26 29  1  0  0  0
 29 30  3  0  0  0
 17 18  1  0  0  0
 18 19  1  0  0  0
  4  5  2  0  0  0
  9 10  2  0  0  0
 10 11  1  0  0  0
 11 12  2  0  0  0
 12 13  1  0  0  0
 12  7  1  0  0  0
  5  1  1  0  0  0
 19 14  1  0  0  0
 26 20  1  0  0  0
 33 34  1  0  0  0
 25 27  1  0  0  0
 25 28  1  0  0  0
M  END
> <minimizedAffinity>
-7.31563

> <CNNscore>
0.2715722322

> <CNNaffinity>
7.0546140671

> <CNN_VS>
1.9158372879

> <CNNaffinity_variance>
0.1303179264

$$$$
[H]OC([H])([H])C([H])([H])n1c(C2([H])C([H])([H])C([H])([H])N(c3nc([H])nc(N([H])[H])c3C#N)C([H])([H])C2([H])[H])nc(-c2c([H])c([H])c(F)c(C([H])([H])[H])c2[H])c1[H]


 34 37  0  0  0  0  0  0  0  0999 V2000
   58.8001   -7.8274   -2.9950 C   0  0  0  0  0  0  0  0  0  0  0  0
   57.7191   -7.7187   -2.1523 C   0  0  0  0  0  0  0  0  0  0  0  0
   56.6853   -7.2098   -2.8948 N   0  0  0  0  0  0  0  0  0  0  0  0
   57.1056   -7.0102   -4.1464 C   0  0  0  0  0  0  0  0  0  0  0  0
   58.3924   -7.3923   -4.1838 N   0  0  0  0  0  0  0  0  0  0  0  0
   63.0447   -7.5289   -0.3675 C   0  0  0  0  0  0  0  0  0  0  0  0
   62.1707   -8.2035   -1.3585 C   0  0  0  0  0  0  0  0  0  0  0  0
   60.9156   -7.6987   -1.7003 C   0  0  0  0  0  0  0  0  0  0  0  0
   60.1152   -8.3272   -2.6155 C   0  0  0  0  0  0  0  0  0  0  0  0
   60.5619   -9.4855   -3.2120 C   0  0  0  0  0  0  0  0  0  0  0  0
   61.7993  -10.0086   -2.8939 C   0  0  0  0  0  0  0  0  0  0  0  0
   62.6040   -9.3641   -1.9643 C   0  0  0  0  0  0  0  0  0  0  0  0
   63.8220   -9.9184   -1.6800 F   0  0  0  0  0  0  0  0  0  0  0  0
   56.3415   -6.4782   -5.2723 C   0  0  0  0  0  0  0  0  0  0  0  0
   56.0073   -5.0118   -5.0772 C   0  0  0  0  0  0  0  0  0  0  0  0
   55.6476   -4.5125   -6.4542 C   0  0  0  0  0  0  0  0  0  0  0  0
   54.4404   -5.2335   -6.9190 N   0  0  0  0  0  0  0  0  0  0  0  0
   54.3807   -6.6446   -6.7552 C   0  0  0  0  0  0  0  0  0  0  0  0
   54.9957   -7.1514   -5.4395 C   0  0  0  0  0  0  0  0  0  0  0  0
   53.4420   -4.3861   -7.4612 C   0  0  0  0  0  0  0  0  0  0  0  0
   53.7102   -3.6058   -8.5559 N   0  0  0  0  0  0  0  0  0  0  0  0
   52.8045   -2.7688   -9.0678 C   0  0  0  0  0  0  0  0  0  0  0  0
   51.5859   -2.6470   -8.5391 N   0  0  0  0  0  0  0  0  0  0  0  0
   51.2498   -3.3779   -7.4679 C   0  0  0  0  0  0  0  0  0  0  0  0
   49.9575   -3.2856   -6.8621 N   0  0  0  0  0  0  0  0  0  0  0  0
   52.2040   -4.2629   -6.9258 C   0  0  0  0  0  0  0  0  0  0  0  0
   49.6862   -2.4000   -6.3513 H   0  0  0  0  0  0  0  0  0  0  0  0
   49.2562   -4.0505   -6.8942 H   0  0  0  0  0  0  0  0  0  0  0  0
   51.7814   -5.0603   -5.7996 C   0  0  0  0  0  0  0  0  0  0  0  0
   51.4495   -5.6783   -4.8751 N   0  0  0  0  0  0  0  0  0  0  0  0
   55.3929   -6.9727   -2.3237 C   0  0  0  0  0  0  0  0  0  0  0  0
   55.4401   -5.7302   -1.4851 C   0  0  0  0  0  0  0  0  0  0  0  0
   54.5239   -4.7640   -1.8113 O   0  0  0  0  0  0  0  0  0  0  0  0
   54.0515   -4.3817   -1.0131 H   0  0  0  0  0  0  0  0  0  0  0  0
  6  7  1  0  0  0
  7  8  2  0  0  0
  8  9  1  0  0  0
  9  1  1  0  0  0
  1  2  2  0  0  0
  2  3  1  0  0  0
  3 31  1  0  0  0
 31 32  1  0  0  0
 32 33  1  0  0  0
  3  4  1  0  0  0
  4 14  1  0  0  0
 14 15  1  0  0  0
 15 16  1  0  0  0
 16 17  1  0  0  0
 17 20  1  0  0  0
 20 21  2  0  0  0
 21 22  1  0  0  0
 22 23  2  0  0  0
 23 24  1  0  0  0
 24 25  1  0  0  0
 24 26  2  0  0  0
 26 29  1  0  0  0
 29 30  3  0  0  0
 17 18  1  0  0  0
 18 19  1  0  0  0
  4  5  2  0  0  0
  9 10  2  0  0  0
 10 11  1  0  0  0
 11 12  2  0  0  0
 12 13  1  0  0  0
 12  7  1  0  0  0
  5  1  1  0  0  0
 19 14  1  0  0  0
 26 20  1  0  0  0
 33 34  1  0  0  0
 25 27  1  0  0  0
 25 28  1  0  0  0
M  END
> <minimizedAffinity>
-7.11092

> <CNNscore>
0.2147373557

> <CNNaffinity>
6.4256691933

> <CNN_VS>
1.3798311949

> <CNNaffinity_variance>
0.2868846059

$$$$
[H]OC([H])([H])C([H])([H])n1c(C2([H])C([H])([H])C([H])([H])N(c3nc([H])nc(N([H])[H])c3C#N)C([H])([H])C2([H])[H])nc(-c2c([H])c([H])c(F)c(C([H])([H])[H])c2[H])c1[H]


 34 37  0  0  0  0  0  0  0  0999 V2000
   62.4338   -4.9583  -13.9095 C   0  0  0  0  0  0  0  0  0  0  0  0
   63.8010   -5.1036  -13.9024 C   0  0  0  0  0  0  0  0  0  0  0  0
   64.1060   -5.9477  -12.8663 N   0  0  0  0  0  0  0  0  0  0  0  0
   62.9763   -6.3117  -12.2547 C   0  0  0  0  0  0  0  0  0  0  0  0
   61.9740   -5.6990  -12.9052 N   0  0  0  0  0  0  0  0  0  0  0  0
   58.1921   -2.8480  -15.5108 C   0  0  0  0  0  0  0  0  0  0  0  0
   59.6455   -3.1143  -15.6433 C   0  0  0  0  0  0  0  0  0  0  0  0
   60.3387   -3.9010  -14.7228 C   0  0  0  0  0  0  0  0  0  0  0  0
   61.6798   -4.1419  -14.8521 C   0  0  0  0  0  0  0  0  0  0  0  0
   62.3589   -3.5934  -15.9174 C   0  0  0  0  0  0  0  0  0  0  0  0
   61.6996   -2.8108  -16.8442 C   0  0  0  0  0  0  0  0  0  0  0  0
   60.3392   -2.5720  -16.7046 C   0  0  0  0  0  0  0  0  0  0  0  0
   59.7275   -1.7910  -17.6466 F   0  0  0  0  0  0  0  0  0  0  0  0
   62.8287   -7.1959  -11.1009 C   0  0  0  0  0  0  0  0  0  0  0  0
   61.4705   -7.0365  -10.4454 C   0  0  0  0  0  0  0  0  0  0  0  0
   61.2998   -8.2784   -9.6066 C   0  0  0  0  0  0  0  0  0  0  0  0
   62.3502   -8.2927   -8.5627 N   0  0  0  0  0  0  0  0  0  0  0  0
   63.6898   -7.9971   -8.9358 C   0  0  0  0  0  0  0  0  0  0  0  0
   63.8176   -6.8899   -9.9960 C   0  0  0  0  0  0  0  0  0  0  0  0
   61.8608   -8.5792   -7.2637 C   0  0  0  0  0  0  0  0  0  0  0  0
   61.6341   -7.5681   -6.3662 N   0  0  0  0  0  0  0  0  0  0  0  0
   61.2101   -7.8068   -5.1228 C   0  0  0  0  0  0  0  0  0  0  0  0
   60.9834   -9.0467   -4.6863 N   0  0  0  0  0  0  0  0  0  0  0  0
   61.1820  -10.0871   -5.5065 C   0  0  0  0  0  0  0  0  0  0  0  0
   60.9545  -11.4361   -5.0891 N   0  0  0  0  0  0  0  0  0  0  0  0
   61.6291   -9.8377   -6.8201 C   0  0  0  0  0  0  0  0  0  0  0  0
   61.5966  -11.8717   -4.3703 H   0  0  0  0  0  0  0  0  0  0  0  0
   60.1822  -12.0247   -5.4565 H   0  0  0  0  0  0  0  0  0  0  0  0
   61.7866  -10.9864   -7.6795 C   0  0  0  0  0  0  0  0  0  0  0  0
   61.9058  -11.8923   -8.3950 N   0  0  0  0  0  0  0  0  0  0  0  0
   65.4572   -6.3236  -12.5737 C   0  0  0  0  0  0  0  0  0  0  0  0
   65.7369   -7.6735  -13.1641 C   0  0  0  0  0  0  0  0  0  0  0  0
   64.8562   -8.0884  -14.1294 O   0  0  0  0  0  0  0  0  0  0  0  0
   65.3085   -8.4721  -14.9385 H   0  0  0  0  0  0  0  0  0  0  0  0
  6  7  1  0  0  0
  7  8  2  0  0  0
  8  9  1  0  0  0
  9  1  1  0  0  0
  1  2  2  0  0  0
  2  3  1  0  0  0
  3 31  1  0  0  0
 31 32  1  0  0  0
 32 33  1  0  0  0
  3  4  1  0  0  0
  4 14  1  0  0  0
 14 15  1  0  0  0
 15 16  1  0  0  0
 16 17  1  0  0  0
 17 20  1  0  0  0
 20 21  2  0  0  0
 21 22  1  0  0  0
 22 23  2  0  0  0
 23 24  1  0  0  0
 24 25  1  0  0  0
 24 26  2  0  0  0
 26 29  1  0  0  0
 29 30  3  0  0  0
 17 18  1  0  0  0
 18 19  1  0  0  0
  4  5  2  0  0  0
  9 10  2  0  0  0
 10 11  1  0  0  0
 11 12  2  0  0  0
 12 13  1  0  0  0
 12  7  1  0  0  0
  5  1  1  0  0  0
 19 14  1  0  0  0
 26 20  1  0  0  0
 33 34  1  0  0  0
 25 27  1  0  0  0
 25 28  1  0  0  0
M  END
> <minimizedAffinity>
-3.10083

> <CNNscore>
0.2105381191

> <CNNaffinity>
4.7442064285

> <CNN_VS>
0.9988362789

> <CNNaffinity_variance>
0.1416592002

$$$$
[H]OC([H])([H])C([H])([H])n1c(C2([H])C([H])([H])C([H])([H])N(c3nc([H])nc(N([H])[H])c3C#N)C([H])([H])C2([H])[H])nc(-c2c([H])c([H])c(F)c(C([H])([H])[H])c2[H])c1[H]


 34 37  0  0  0  0  0  0  0  0999 V2000
   59.9546   -6.0522   -9.4070 C   0  0  0  0  0  0  0  0  0  0  0  0
   59.7020   -5.3775  -10.5781 C   0  0  0  0  0  0  0  0  0  0  0  0
   58.3806   -5.0141  -10.5509 N   0  0  0  0  0  0  0  0  0  0  0  0
   57.8343   -5.4447   -9.4110 C   0  0  0  0  0  0  0  0  0  0  0  0
   58.8086   -6.0720   -8.7325 N   0  0  0  0  0  0  0  0  0  0  0  0
   64.5580   -5.6470   -7.4956 C   0  0  0  0  0  0  0  0  0  0  0  0
   63.4660   -6.4453   -8.1047 C   0  0  0  0  0  0  0  0  0  0  0  0
   62.2442   -5.8737   -8.4615 C   0  0  0  0  0  0  0  0  0  0  0  0
   61.2416   -6.6173   -9.0229 C   0  0  0  0  0  0  0  0  0  0  0  0
   61.4464   -7.9619   -9.2398 C   0  0  0  0  0  0  0  0  0  0  0  0
   62.6449   -8.5553   -8.8970 C   0  0  0  0  0  0  0  0  0  0  0  0
   63.6559   -7.7929   -8.3280 C   0  0  0  0  0  0  0  0  0  0  0  0
   64.8264   -8.4228   -8.0045 F   0  0  0  0  0  0  0  0  0  0  0  0
   56.4522   -5.2846   -8.9652 C   0  0  0  0  0  0  0  0  0  0  0  0
   55.6761   -4.3529   -9.8760 C   0  0  0  0  0  0  0  0  0  0  0  0
   54.2262   -4.6417   -9.5770 C   0  0  0  0  0  0  0  0  0  0  0  0
   53.9543   -4.2872   -8.1650 N   0  0  0  0  0  0  0  0  0  0  0  0
   54.8717   -4.7099   -7.1645 C   0  0  0  0  0  0  0  0  0  0  0  0
   56.3466   -4.6463   -7.5963 C   0  0  0  0  0  0  0  0  0  0  0  0
   52.7819   -3.5109   -7.9864 C   0  0  0  0  0  0  0  0  0  0  0  0
   52.5947   -2.3573   -8.7029 N   0  0  0  0  0  0  0  0  0  0  0  0
   51.5202   -1.5835   -8.5309 C   0  0  0  0  0  0  0  0  0  0  0  0
   50.5682   -1.8931   -7.6495 N   0  0  0  0  0  0  0  0  0  0  0  0
   50.6809   -3.0062   -6.9125 C   0  0  0  0  0  0  0  0  0  0  0  0
   49.6895   -3.3843   -5.9534 N   0  0  0  0  0  0  0  0  0  0  0  0
   51.8141   -3.8253   -7.0926 C   0  0  0  0  0  0  0  0  0  0  0  0
   49.5707   -2.8068   -5.0753 H   0  0  0  0  0  0  0  0  0  0  0  0
   49.0675   -4.2075   -6.0698 H   0  0  0  0  0  0  0  0  0  0  0  0
   51.8697   -5.0353   -6.3080 C   0  0  0  0  0  0  0  0  0  0  0  0
   51.9187   -5.9912   -5.6516 N   0  0  0  0  0  0  0  0  0  0  0  0
   57.7784   -4.2819  -11.6251 C   0  0  0  0  0  0  0  0  0  0  0  0
   58.8332   -3.9030  -12.6215 C   0  0  0  0  0  0  0  0  0  0  0  0
   58.3715   -3.5534  -13.8641 O   0  0  0  0  0  0  0  0  0  0  0  0
   58.7964   -2.7184  -14.2231 H   0  0  0  0  0  0  0  0  0  0  0  0
  6  7  1  0  0  0
  7  8  2  0  0  0
  8  9  1  0  0  0
  9  1  1  0  0  0
  1  2  2  0  0  0
  2  3  1  0  0  0
  3 31  1  0  0  0
 31 32  1  0  0  0
 32 33  1  0  0  0
  3  4  1  0  0  0
  4 14  1  0  0  0
 14 15  1  0  0  0
 15 16  1  0  0  0
 16 17  1  0  0  0
 17 20  1  0  0  0
 20 21  2  0  0  0
 21 22  1  0  0  0
 22 23  2  0  0  0
 23 24  1  0  0  0
 24 25  1  0  0  0
 24 26  2  0  0  0
 26 29  1  0  0  0
 29 30  3  0  0  0
 17 18  1  0  0  0
 18 19  1  0  0  0
  4  5  2  0  0  0
  9 10  2  0  0  0
 10 11  1  0  0  0
 11 12  2  0  0  0
 12 13  1  0  0  0
 12  7  1  0  0  0
  5  1  1  0  0  0
 19 14  1  0  0  0
 26 20  1  0  0  0
 33 34  1  0  0  0
 25 27  1  0  0  0
 25 28  1  0  0  0
M  END
> <minimizedAffinity>
-6.90598

> <CNNscore>
0.2068191767

> <CNNaffinity>
6.5344338417

> <CNN_VS>
1.3514462709

> <CNNaffinity_variance>
0.0760466754

$$$$
[H]OC([H])([H])C([H])([H])n1c(C2([H])C([H])([H])C([H])([H])N(c3nc([H])nc(N([H])[H])c3C#N)C([H])([H])C2([H])[H])nc(-c2c([H])c([H])c(F)c(C([H])([H])[H])c2[H])c1[H]


 34 37  0  0  0  0  0  0  0  0999 V2000
   59.8515   -6.0279   -9.2024 C   0  0  0  0  0  0  0  0  0  0  0  0
   60.7131   -6.1600  -10.2658 C   0  0  0  0  0  0  0  0  0  0  0  0
   61.8394   -6.7802   -9.7906 N   0  0  0  0  0  0  0  0  0  0  0  0
   61.6850   -7.0233   -8.4867 C   0  0  0  0  0  0  0  0  0  0  0  0
   60.4707   -6.5582   -8.1517 N   0  0  0  0  0  0  0  0  0  0  0  0
   55.6593   -4.3603   -7.0451 C   0  0  0  0  0  0  0  0  0  0  0  0
   56.4979   -4.6086   -8.2434 C   0  0  0  0  0  0  0  0  0  0  0  0
   57.7613   -5.1937   -8.1519 C   0  0  0  0  0  0  0  0  0  0  0  0
   58.5289   -5.4193   -9.2624 C   0  0  0  0  0  0  0  0  0  0  0  0
   58.0400   -5.0592  -10.4987 C   0  0  0  0  0  0  0  0  0  0  0  0
   56.7934   -4.4784  -10.6203 C   0  0  0  0  0  0  0  0  0  0  0  0
   56.0222   -4.2535   -9.4881 C   0  0  0  0  0  0  0  0  0  0  0  0
   54.7936   -3.6757   -9.6563 F   0  0  0  0  0  0  0  0  0  0  0  0
   62.6334   -7.6625   -7.5777 C   0  0  0  0  0  0  0  0  0  0  0  0
   61.9374   -8.6124   -6.6220 C   0  0  0  0  0  0  0  0  0  0  0  0
   63.0364   -9.4991   -6.0921 C   0  0  0  0  0  0  0  0  0  0  0  0
   63.9983   -8.6621   -5.3387 N   0  0  0  0  0  0  0  0  0  0  0  0
   64.4364   -7.4377   -5.9134 C   0  0  0  0  0  0  0  0  0  0  0  0
   63.3407   -6.6733   -6.6758 C   0  0  0  0  0  0  0  0  0  0  0  0
   64.3498   -9.1943   -4.0729 C   0  0  0  0  0  0  0  0  0  0  0  0
   65.4203  -10.0411   -3.9464 N   0  0  0  0  0  0  0  0  0  0  0  0
   65.7547  -10.5896   -2.7758 C   0  0  0  0  0  0  0  0  0  0  0  0
   65.0623  -10.3416   -1.6631 N   0  0  0  0  0  0  0  0  0  0  0  0
   64.0030   -9.5227   -1.7078 C   0  0  0  0  0  0  0  0  0  0  0  0
   63.2263   -9.2234   -0.5446 N   0  0  0  0  0  0  0  0  0  0  0  0
   63.6481   -8.9418   -2.9423 C   0  0  0  0  0  0  0  0  0  0  0  0
   62.6304   -9.9815   -0.1098 H   0  0  0  0  0  0  0  0  0  0  0  0
   63.2119   -8.2887   -0.0929 H   0  0  0  0  0  0  0  0  0  0  0  0
   62.5270   -8.0330   -2.9319 C   0  0  0  0  0  0  0  0  0  0  0  0
   61.6204   -7.3095   -2.8937 N   0  0  0  0  0  0  0  0  0  0  0  0
   62.9501   -7.0819  -10.6439 C   0  0  0  0  0  0  0  0  0  0  0  0
   62.7772   -6.3737  -11.9545 C   0  0  0  0  0  0  0  0  0  0  0  0
   62.6835   -7.1856  -13.0551 O   0  0  0  0  0  0  0  0  0  0  0  0
   61.9369   -6.9281  -13.6737 H   0  0  0  0  0  0  0  0  0  0  0  0
  6  7  1  0  0  0
  7  8  2  0  0  0
  8  9  1  0  0  0
  9  1  1  0  0  0
  1  2  2  0  0  0
  2  3  1  0  0  0
  3 31  1  0  0  0
 31 32  1  0  0  0
 32 33  1  0  0  0
  3  4  1  0  0  0
  4 14  1  0  0  0
 14 15  1  0  0  0
 15 16  1  0  0  0
 16 17  1  0  0  0
 17 20  1  0  0  0
 20 21  2  0  0  0
 21 22  1  0  0  0
 22 23  2  0  0  0
 23 24  1  0  0  0
 24 25  1  0  0  0
 24 26  2  0  0  0
 26 29  1  0  0  0
 29 30  3  0  0  0
 17 18  1  0  0  0
 18 19  1  0  0  0
  4  5  2  0  0  0
  9 10  2  0  0  0
 10 11  1  0  0  0
 11 12  2  0  0  0
 12 13  1  0  0  0
 12  7  1  0  0  0
  5  1  1  0  0  0
 19 14  1  0  0  0
 26 20  1  0  0  0
 33 34  1  0  0  0
 25 27  1  0  0  0
 25 28  1  0  0  0
M  END
> <minimizedAffinity>
-5.83531

> <CNNscore>
0.1908457875

> <CNNaffinity>
5.0774812698

> <CNN_VS>
0.9690158963

> <CNNaffinity_variance>
0.1794940233

$$$$
[H]Cl.[H]O[C@]([H])(C(=O)N([H])[C@]([H])(C(=O)OC([H])([H])n1c([H])c(F)c(=O)n([H])c1=O)C([H])([H])C([H])(C([H])([H])[H])C([H])([H])[H])[C@]([H])(N([H])[H])C([H])([H])c1c([H])c([H])c([H])c([H])c1[H]


 37 38  0  0  0  0  0  0  0  0999 V2000
   54.1180   -3.8611   -8.8431 C   0  0  0  0  0  0  0  0  0  0  0  0
   54.7853   -3.3599  -10.0512 N   0  0  0  0  0  0  0  0  0  0  0  0
   55.9444   -3.9933  -10.5770 C   0  0  0  0  0  0  0  0  0  0  0  0
   56.3851   -4.9991   -9.9765 O   0  0  0  0  0  0  0  0  0  0  0  0
   54.4282   -2.5224  -10.5606 H   0  0  0  0  0  0  0  0  0  0  0  0
   56.6334   -3.5034  -11.7966 C   0  0  0  0  0  0  0  0  0  0  0  0
   57.3712   -2.3708  -11.4806 O   0  0  0  0  0  0  0  0  0  0  0  0
   58.2581   -2.6392  -11.1440 H   0  0  0  0  0  0  0  0  0  0  0  0
   57.5819   -4.5476  -12.3686 C   0  0  0  0  0  0  0  0  0  0  0  0
   58.3735   -5.1686  -11.3543 N   0  0  0  0  0  0  0  0  0  0  0  0
   58.5043   -6.1902  -11.4784 H   0  0  0  0  0  0  0  0  0  0  0  0
   59.2154   -4.6660  -11.0621 H   0  0  0  0  0  0  0  0  0  0  0  0
   58.4405   -3.8471  -13.3861 C   0  0  0  0  0  0  0  0  0  0  0  0
   57.7545   -3.6099  -14.6728 C   0  0  0  0  0  0  0  0  0  0  0  0
   58.3797   -3.0194  -15.7584 C   0  0  0  0  0  0  0  0  0  0  0  0
   57.7339   -2.7990  -16.9627 C   0  0  0  0  0  0  0  0  0  0  0  0
   56.4297   -3.1720  -17.1039 C   0  0  0  0  0  0  0  0  0  0  0  0
   55.7691   -3.7606  -16.0555 C   0  0  0  0  0  0  0  0  0  0  0  0
   56.4189   -3.9736  -14.8679 C   0  0  0  0  0  0  0  0  0  0  0  0
   52.8129   -3.1743   -8.6813 C   0  0  0  0  0  0  0  0  0  0  0  0
   52.3178   -2.6324   -9.7314 O   0  0  0  0  0  0  0  0  0  0  0  0
   52.0765   -3.0510   -7.5548 O   0  0  0  0  0  0  0  0  0  0  0  0
   50.8078   -3.4591   -7.2234 C   0  0  0  0  0  0  0  0  0  0  0  0
   50.6156   -4.0936   -5.9598 N   0  0  0  0  0  0  0  0  0  0  0  0
   51.2829   -5.1548   -5.4837 C   0  0  0  0  0  0  0  0  0  0  0  0
   51.0013   -5.7124   -4.2301 C   0  0  0  0  0  0  0  0  0  0  0  0
   51.6869   -6.7795   -3.7734 F   0  0  0  0  0  0  0  0  0  0  0  0
   50.0154   -5.1687   -3.4528 C   0  0  0  0  0  0  0  0  0  0  0  0
   49.6832   -5.5862   -2.3215 O   0  0  0  0  0  0  0  0  0  0  0  0
   49.3557   -4.0970   -3.9569 N   0  0  0  0  0  0  0  0  0  0  0  0
   49.6476   -3.5907   -5.1524 C   0  0  0  0  0  0  0  0  0  0  0  0
   48.9645   -2.5785   -5.5335 O   0  0  0  0  0  0  0  0  0  0  0  0
   48.5897   -3.6601   -3.3746 H   0  0  0  0  0  0  0  0  0  0  0  0
   55.0276   -3.7933   -7.6697 C   0  0  0  0  0  0  0  0  0  0  0  0
   54.0356   -6.0717   -7.3745 C   0  0  0  0  0  0  0  0  0  0  0  0
   54.9180   -4.9761   -6.7664 C   0  0  0  0  0  0  0  0  0  0  0  0
   56.3155   -5.5647   -6.4995 C   0  0  0  0  0  0  0  0  0  0  0  0
 35 36  1  0  0  0
 36 37  1  0  0  0
 36 34  1  0  0  0
 34  1  1  0  0  0
  1  2  1  0  0  0
  2  3  1  0  0  0
  3  4  2  0  0  0
  3  6  1  0  0  0
  6  7  1  0  0  0
  6  9  1  0  0  0
  9 10  1  0  0  0
  9 13  1  0  0  0
 13 14  1  0  0  0
 14 15  2  0  0  0
 15 16  1  0  0  0
 16 17  2  0  0  0
 17 18  1  0  0  0
 18 19  2  0  0  0
  1 20  1  0  0  0
 20 21  2  0  0  0
 20 22  1  0  0  0
 22 23  1  0  0  0
 23 24  1  0  0  0
 24 25  1  0  0  0
 25 26  2  0  0  0
 26 27  1  0  0  0
 26 28  1  0  0  0
 28 29  2  0  0  0
 28 30  1  0  0  0
 30 31  1  0  0  0
 31 32  2  0  0  0
 19 14  1  0  0  0
 31 24  1  0  0  0
  2  5  1  0  0  0
  7  8  1  0  0  0
 10 11  1  0  0  0
 10 12  1  0  0  0
 30 33  1  0  0  0
M  END
> <minimizedAffinity>
-8.27409

> <CNNscore>
0.8603217602

> <CNNaffinity>
7.0853171349

> <CNN_VS>
6.0956525803

> <CNNaffinity_variance>
0.1290524900

$$$$
[H]Cl.[H]O[C@]([H])(C(=O)N([H])[C@]([H])(C(=O)OC([H])([H])n1c([H])c(F)c(=O)n([H])c1=O)C([H])([H])C([H])(C([H])([H])[H])C([H])([H])[H])[C@]([H])(N([H])[H])C([H])([H])c1c([H])c([H])c([H])c([H])c1[H]


 37 38  0  0  0  0  0  0  0  0999 V2000
   50.5902   -5.4229   -5.5352 C   0  0  0  0  0  0  0  0  0  0  0  0
   51.1938   -6.0205   -4.3375 N   0  0  0  0  0  0  0  0  0  0  0  0
   50.5828   -5.9019   -3.0593 C   0  0  0  0  0  0  0  0  0  0  0  0
   49.5064   -5.2680   -2.9817 O   0  0  0  0  0  0  0  0  0  0  0  0
   52.0907   -6.5510   -4.3888 H   0  0  0  0  0  0  0  0  0  0  0  0
   51.1757   -6.4986   -1.8368 C   0  0  0  0  0  0  0  0  0  0  0  0
   50.1711   -7.0917   -1.0845 O   0  0  0  0  0  0  0  0  0  0  0  0
   50.0205   -8.0120   -1.4041 H   0  0  0  0  0  0  0  0  0  0  0  0
   52.2128   -7.5614   -2.1718 C   0  0  0  0  0  0  0  0  0  0  0  0
   51.9068   -8.8204   -1.5698 N   0  0  0  0  0  0  0  0  0  0  0  0
   52.0859   -9.6410   -2.1785 H   0  0  0  0  0  0  0  0  0  0  0  0
   52.1984   -8.9428   -0.5967 H   0  0  0  0  0  0  0  0  0  0  0  0
   53.5430   -7.0360   -1.7050 C   0  0  0  0  0  0  0  0  0  0  0  0
   54.4360   -6.6289   -2.8092 C   0  0  0  0  0  0  0  0  0  0  0  0
   54.9959   -5.3649   -2.8937 C   0  0  0  0  0  0  0  0  0  0  0  0
   55.8325   -4.9870   -3.9296 C   0  0  0  0  0  0  0  0  0  0  0  0
   56.1284   -5.8820   -4.9152 C   0  0  0  0  0  0  0  0  0  0  0  0
   55.5967   -7.1460   -4.8735 C   0  0  0  0  0  0  0  0  0  0  0  0
   54.7696   -7.5088   -3.8429 C   0  0  0  0  0  0  0  0  0  0  0  0
   51.2149   -6.0103   -6.7460 C   0  0  0  0  0  0  0  0  0  0  0  0
   50.6059   -7.0034   -7.2791 O   0  0  0  0  0  0  0  0  0  0  0  0
   52.3542   -5.6222   -7.3607 O   0  0  0  0  0  0  0  0  0  0  0  0
   52.9475   -4.3956   -7.5322 C   0  0  0  0  0  0  0  0  0  0  0  0
   54.1093   -4.3215   -8.3573 N   0  0  0  0  0  0  0  0  0  0  0  0
   55.3189   -4.8349   -8.0899 C   0  0  0  0  0  0  0  0  0  0  0  0
   56.4019   -4.6889   -8.9660 C   0  0  0  0  0  0  0  0  0  0  0  0
   57.6083   -5.2149   -8.6745 F   0  0  0  0  0  0  0  0  0  0  0  0
   56.2375   -4.0022  -10.1378 C   0  0  0  0  0  0  0  0  0  0  0  0
   57.1343   -3.8130  -10.9889 O   0  0  0  0  0  0  0  0  0  0  0  0
   55.0056   -3.4928  -10.3843 N   0  0  0  0  0  0  0  0  0  0  0  0
   53.9967   -3.6493   -9.5309 C   0  0  0  0  0  0  0  0  0  0  0  0
   52.8755   -3.1288   -9.8601 O   0  0  0  0  0  0  0  0  0  0  0  0
   54.8545   -2.9582  -11.2833 H   0  0  0  0  0  0  0  0  0  0  0  0
   50.6164   -3.9391   -5.4564 C   0  0  0  0  0  0  0  0  0  0  0  0
   48.5635   -2.5817   -5.0033 C   0  0  0  0  0  0  0  0  0  0  0  0
   49.4148   -3.2926   -6.0609 C   0  0  0  0  0  0  0  0  0  0  0  0
   49.8492   -2.2587   -7.1159 C   0  0  0  0  0  0  0  0  0  0  0  0
 35 36  1  0  0  0
 36 37  1  0  0  0
 36 34  1  0  0  0
 34  1  1  0  0  0
  1  2  1  0  0  0
  2  3  1  0  0  0
  3  4  2  0  0  0
  3  6  1  0  0  0
  6  7  1  0  0  0
  6  9  1  0  0  0
  9 10  1  0  0  0
  9 13  1  0  0  0
 13 14  1  0  0  0
 14 15  2  0  0  0
 15 16  1  0  0  0
 16 17  2  0  0  0
 17 18  1  0  0  0
 18 19  2  0  0  0
  1 20  1  0  0  0
 20 21  2  0  0  0
 20 22  1  0  0  0
 22 23  1  0  0  0
 23 24  1  0  0  0
 24 25  1  0  0  0
 25 26  2  0  0  0
 26 27  1  0  0  0
 26 28  1  0  0  0
 28 29  2  0  0  0
 28 30  1  0  0  0
 30 31  1  0  0  0
 31 32  2  0  0  0
 19 14  1  0  0  0
 31 24  1  0  0  0
  2  5  1  0  0  0
  7  8  1  0  0  0
 10 11  1  0  0  0
 10 12  1  0  0  0
 30 33  1  0  0  0
M  END
> <minimizedAffinity>
-9.27998

> <CNNscore>
0.8428216577

> <CNNaffinity>
7.4059996605

> <CNN_VS>
6.2419366837

> <CNNaffinity_variance>
0.1504709274

$$$$
[H]Cl.[H]O[C@]([H])(C(=O)N([H])[C@]([H])(C(=O)OC([H])([H])n1c([H])c(F)c(=O)n([H])c1=O)C([H])([H])C([H])(C([H])([H])[H])C([H])([H])[H])[C@]([H])(N([H])[H])C([H])([H])c1c([H])c([H])c([H])c([H])c1[H]


 37 38  0  0  0  0  0  0  0  0999 V2000
   57.9328   -4.9427   -9.7141 C   0  0  0  0  0  0  0  0  0  0  0  0
   58.6438   -6.1286   -9.2201 N   0  0  0  0  0  0  0  0  0  0  0  0
   59.9309   -6.4814   -9.7102 C   0  0  0  0  0  0  0  0  0  0  0  0
   60.4464   -5.7469  -10.5827 O   0  0  0  0  0  0  0  0  0  0  0  0
   58.2249   -6.7491   -8.4934 H   0  0  0  0  0  0  0  0  0  0  0  0
   60.6666   -7.6749   -9.2242 C   0  0  0  0  0  0  0  0  0  0  0  0
   60.6322   -8.6615  -10.2000 O   0  0  0  0  0  0  0  0  0  0  0  0
   61.3728   -8.5218  -10.8354 H   0  0  0  0  0  0  0  0  0  0  0  0
   62.1232   -7.3559   -8.9180 C   0  0  0  0  0  0  0  0  0  0  0  0
   62.8721   -7.0729  -10.1013 N   0  0  0  0  0  0  0  0  0  0  0  0
   63.5467   -6.2907  -10.0045 H   0  0  0  0  0  0  0  0  0  0  0  0
   63.2306   -7.8802  -10.6175 H   0  0  0  0  0  0  0  0  0  0  0  0
   62.6844   -8.5412   -8.1809 C   0  0  0  0  0  0  0  0  0  0  0  0
   62.2044   -8.6499   -6.7880 C   0  0  0  0  0  0  0  0  0  0  0  0
   61.5001   -9.7473   -6.3210 C   0  0  0  0  0  0  0  0  0  0  0  0
   61.0521   -9.8460   -5.0151 C   0  0  0  0  0  0  0  0  0  0  0  0
   61.3053   -8.8317   -4.1393 C   0  0  0  0  0  0  0  0  0  0  0  0
   61.9994   -7.7246   -4.5569 C   0  0  0  0  0  0  0  0  0  0  0  0
   62.4379   -7.6380   -5.8524 C   0  0  0  0  0  0  0  0  0  0  0  0
   56.7905   -4.6445   -8.8156 C   0  0  0  0  0  0  0  0  0  0  0  0
   57.0810   -4.2995   -7.6164 O   0  0  0  0  0  0  0  0  0  0  0  0
   55.4722   -4.6906   -9.1096 O   0  0  0  0  0  0  0  0  0  0  0  0
   54.4879   -3.7330   -9.1228 C   0  0  0  0  0  0  0  0  0  0  0  0
   53.3916   -3.8852   -8.2221 N   0  0  0  0  0  0  0  0  0  0  0  0
   53.2706   -4.8020   -7.2510 C   0  0  0  0  0  0  0  0  0  0  0  0
   52.1381   -4.8747   -6.4301 C   0  0  0  0  0  0  0  0  0  0  0  0
   52.0406   -5.8056   -5.4601 F   0  0  0  0  0  0  0  0  0  0  0  0
   51.1117   -3.9886   -6.6119 C   0  0  0  0  0  0  0  0  0  0  0  0
   50.0585   -3.9645   -5.9376 O   0  0  0  0  0  0  0  0  0  0  0  0
   51.2582   -3.0722   -7.6001 N   0  0  0  0  0  0  0  0  0  0  0  0
   52.3476   -3.0295   -8.3630 C   0  0  0  0  0  0  0  0  0  0  0  0
   52.3848   -2.1252   -9.2671 O   0  0  0  0  0  0  0  0  0  0  0  0
   50.4782   -2.3773   -7.7595 H   0  0  0  0  0  0  0  0  0  0  0  0
   57.5942   -5.0906  -11.1536 C   0  0  0  0  0  0  0  0  0  0  0  0
   58.9290   -3.6937  -12.7440 C   0  0  0  0  0  0  0  0  0  0  0  0
   57.6482   -3.8051  -11.9097 C   0  0  0  0  0  0  0  0  0  0  0  0
   56.4373   -3.7001  -12.8548 C   0  0  0  0  0  0  0  0  0  0  0  0
 35 36  1  0  0  0
 36 37  1  0  0  0
 36 34  1  0  0  0
 34  1  1  0  0  0
  1  2  1  0  0  0
  2  3  1  0  0  0
  3  4  2  0  0  0
  3  6  1  0  0  0
  6  7  1  0  0  0
  6  9  1  0  0  0
  9 10  1  0  0  0
  9 13  1  0  0  0
 13 14  1  0  0  0
 14 15  2  0  0  0
 15 16  1  0  0  0
 16 17  2  0  0  0
 17 18  1  0  0  0
 18 19  2  0  0  0
  1 20  1  0  0  0
 20 21  2  0  0  0
 20 22  1  0  0  0
 22 23  1  0  0  0
 23 24  1  0  0  0
 24 25  1  0  0  0
 25 26  2  0  0  0
 26 27  1  0  0  0
 26 28  1  0  0  0
 28 29  2  0  0  0
 28 30  1  0  0  0
 30 31  1  0  0  0
 31 32  2  0  0  0
 19 14  1  0  0  0
 31 24  1  0  0  0
  2  5  1  0  0  0
  7  8  1  0  0  0
 10 11  1  0  0  0
 10 12  1  0  0  0
 30 33  1  0  0  0
M  END
> <minimizedAffinity>
-7.15236

> <CNNscore>
0.7130466104

> <CNNaffinity>
6.5331220627

> <CNN_VS>
4.6584205627

> <CNNaffinity_variance>
0.1034618393

$$$$
[H]Cl.[H]O[C@]([H])(C(=O)N([H])[C@]([H])(C(=O)OC([H])([H])n1c([H])c(F)c(=O)n([H])c1=O)C([H])([H])C([H])(C([H])([H])[H])C([H])([H])[H])[C@]([H])(N([H])[H])C([H])([H])c1c([H])c([H])c([H])c([H])c1[H]


 37 38  0  0  0  0  0  0  0  0999 V2000
   57.9946   -4.8807   -9.2794 C   0  0  0  0  0  0  0  0  0  0  0  0
   58.9217   -5.8738   -8.7226 N   0  0  0  0  0  0  0  0  0  0  0  0
   60.1350   -6.2103   -9.3828 C   0  0  0  0  0  0  0  0  0  0  0  0
   60.3939   -5.6317  -10.4620 O   0  0  0  0  0  0  0  0  0  0  0  0
   58.7172   -6.3633   -7.8241 H   0  0  0  0  0  0  0  0  0  0  0  0
   61.0856   -7.2105   -8.8370 C   0  0  0  0  0  0  0  0  0  0  0  0
   60.8368   -7.3857   -7.4826 O   0  0  0  0  0  0  0  0  0  0  0  0
   60.1295   -8.0617   -7.3628 H   0  0  0  0  0  0  0  0  0  0  0  0
   60.9452   -8.5600   -9.5273 C   0  0  0  0  0  0  0  0  0  0  0  0
   60.9242   -9.6418   -8.5944 N   0  0  0  0  0  0  0  0  0  0  0  0
   60.2422  -10.3899   -8.8213 H   0  0  0  0  0  0  0  0  0  0  0  0
   61.8333   -9.9813   -8.2701 H   0  0  0  0  0  0  0  0  0  0  0  0
   62.0976   -8.6818  -10.4867 C   0  0  0  0  0  0  0  0  0  0  0  0
   63.3598   -8.1181   -9.9658 C   0  0  0  0  0  0  0  0  0  0  0  0
   64.1355   -8.7652   -9.0182 C   0  0  0  0  0  0  0  0  0  0  0  0
   65.3180   -8.2342   -8.5327 C   0  0  0  0  0  0  0  0  0  0  0  0
   65.7520   -7.0266   -8.9944 C   0  0  0  0  0  0  0  0  0  0  0  0
   65.0165   -6.3487   -9.9333 C   0  0  0  0  0  0  0  0  0  0  0  0
   63.8473   -6.8844  -10.4067 C   0  0  0  0  0  0  0  0  0  0  0  0
   56.8470   -4.7067   -8.3554 C   0  0  0  0  0  0  0  0  0  0  0  0
   56.8428   -5.4395   -7.3044 O   0  0  0  0  0  0  0  0  0  0  0  0
   55.7994   -3.8629   -8.4862 O   0  0  0  0  0  0  0  0  0  0  0  0
   54.5578   -4.0028   -9.0562 C   0  0  0  0  0  0  0  0  0  0  0  0
   53.4208   -4.0113   -8.1941 N   0  0  0  0  0  0  0  0  0  0  0  0
   53.1841   -4.8616   -7.1846 C   0  0  0  0  0  0  0  0  0  0  0  0
   52.0209   -4.7922   -6.4075 C   0  0  0  0  0  0  0  0  0  0  0  0
   51.8063   -5.6586   -5.3974 F   0  0  0  0  0  0  0  0  0  0  0  0
   51.0845   -3.8310   -6.6741 C   0  0  0  0  0  0  0  0  0  0  0  0
   50.0141   -3.6799   -6.0448 O   0  0  0  0  0  0  0  0  0  0  0  0
   51.3472   -2.9842   -7.6997 N   0  0  0  0  0  0  0  0  0  0  0  0
   52.4627   -3.0767   -8.4192 C   0  0  0  0  0  0  0  0  0  0  0  0
   52.6125   -2.2280   -9.3645 O   0  0  0  0  0  0  0  0  0  0  0  0
   50.6383   -2.2335   -7.9246 H   0  0  0  0  0  0  0  0  0  0  0  0
   57.6415   -5.2156  -10.6836 C   0  0  0  0  0  0  0  0  0  0  0  0
   58.6424   -3.8616  -12.5348 C   0  0  0  0  0  0  0  0  0  0  0  0
   57.4744   -4.0155  -11.5546 C   0  0  0  0  0  0  0  0  0  0  0  0
   56.1688   -4.1304  -12.3627 C   0  0  0  0  0  0  0  0  0  0  0  0
 35 36  1  0  0  0
 36 37  1  0  0  0
 36 34  1  0  0  0
 34  1  1  0  0  0
  1  2  1  0  0  0
  2  3  1  0  0  0
  3  4  2  0  0  0
  3  6  1  0  0  0
  6  7  1  0  0  0
  6  9  1  0  0  0
  9 10  1  0  0  0
  9 13  1  0  0  0
 13 14  1  0  0  0
 14 15  2  0  0  0
 15 16  1  0  0  0
 16 17  2  0  0  0
 17 18  1  0  0  0
 18 19  2  0  0  0
  1 20  1  0  0  0
 20 21  2  0  0  0
 20 22  1  0  0  0
 22 23  1  0  0  0
 23 24  1  0  0  0
 24 25  1  0  0  0
 25 26  2  0  0  0
 26 27  1  0  0  0
 26 28  1  0  0  0
 28 29  2  0  0  0
 28 30  1  0  0  0
 30 31  1  0  0  0
 31 32  2  0  0  0
 19 14  1  0  0  0
 31 24  1  0  0  0
  2  5  1  0  0  0
  7  8  1  0  0  0
 10 11  1  0  0  0
 10 12  1  0  0  0
 30 33  1  0  0  0
M  END
> <minimizedAffinity>
-7.37232

> <CNNscore>
0.7057695985

> <CNNaffinity>
6.3846545219

> <CNN_VS>
4.5060949326

> <CNNaffinity_variance>
0.1323329210

$$$$
[H]Cl.[H]O[C@]([H])(C(=O)N([H])[C@]([H])(C(=O)OC([H])([H])n1c([H])c(F)c(=O)n([H])c1=O)C([H])([H])C([H])(C([H])([H])[H])C([H])([H])[H])[C@]([H])(N([H])[H])C([H])([H])c1c([H])c([H])c([H])c([H])c1[H]


 37 38  0  0  0  0  0  0  0  0999 V2000
   54.7850   -3.9196   -8.7831 C   0  0  0  0  0  0  0  0  0  0  0  0
   54.8363   -5.0405   -7.8360 N   0  0  0  0  0  0  0  0  0  0  0  0
   55.5953   -4.9658   -6.6362 C   0  0  0  0  0  0  0  0  0  0  0  0
   56.2250   -3.9087   -6.4070 O   0  0  0  0  0  0  0  0  0  0  0  0
   54.3162   -5.9270   -8.0157 H   0  0  0  0  0  0  0  0  0  0  0  0
   55.6600   -6.0865   -5.6658 C   0  0  0  0  0  0  0  0  0  0  0  0
   56.9697   -6.5373   -5.5752 O   0  0  0  0  0  0  0  0  0  0  0  0
   57.4587   -5.9965   -4.9119 H   0  0  0  0  0  0  0  0  0  0  0  0
   55.2041   -5.6598   -4.2775 C   0  0  0  0  0  0  0  0  0  0  0  0
   56.1519   -4.8014   -3.6403 N   0  0  0  0  0  0  0  0  0  0  0  0
   55.7298   -4.0149   -3.1117 H   0  0  0  0  0  0  0  0  0  0  0  0
   56.9342   -5.2593   -3.1659 H   0  0  0  0  0  0  0  0  0  0  0  0
   54.9807   -6.9189   -3.4850 C   0  0  0  0  0  0  0  0  0  0  0  0
   53.6868   -6.9448   -2.7726 C   0  0  0  0  0  0  0  0  0  0  0  0
   52.8903   -5.8215   -2.6233 C   0  0  0  0  0  0  0  0  0  0  0  0
   51.6782   -5.8496   -1.9555 C   0  0  0  0  0  0  0  0  0  0  0  0
   51.2346   -7.0213   -1.4168 C   0  0  0  0  0  0  0  0  0  0  0  0
   51.9898   -8.1599   -1.5397 C   0  0  0  0  0  0  0  0  0  0  0  0
   53.1883   -8.1200   -2.2030 C   0  0  0  0  0  0  0  0  0  0  0  0
   53.4439   -3.2878   -8.7252 C   0  0  0  0  0  0  0  0  0  0  0  0
   53.1491   -2.4835   -9.6780 O   0  0  0  0  0  0  0  0  0  0  0  0
   52.4880   -3.4593   -7.7854 O   0  0  0  0  0  0  0  0  0  0  0  0
   51.2355   -4.0214   -7.8241 C   0  0  0  0  0  0  0  0  0  0  0  0
   50.4666   -4.0304   -6.6221 N   0  0  0  0  0  0  0  0  0  0  0  0
   49.6606   -3.0559   -6.1764 C   0  0  0  0  0  0  0  0  0  0  0  0
   48.9613   -3.1603   -4.9673 C   0  0  0  0  0  0  0  0  0  0  0  0
   48.1563   -2.1666   -4.5411 F   0  0  0  0  0  0  0  0  0  0  0  0
   49.0940   -4.2873   -4.2031 C   0  0  0  0  0  0  0  0  0  0  0  0
   48.5175   -4.4839   -3.1107 O   0  0  0  0  0  0  0  0  0  0  0  0
   49.9149   -5.2574   -4.6755 N   0  0  0  0  0  0  0  0  0  0  0  0
   50.5654   -5.1273   -5.8290 C   0  0  0  0  0  0  0  0  0  0  0  0
   51.3147   -6.1020   -6.1828 O   0  0  0  0  0  0  0  0  0  0  0  0
   50.0335   -6.1372   -4.1023 H   0  0  0  0  0  0  0  0  0  0  0  0
   55.2341   -4.3475  -10.1337 C   0  0  0  0  0  0  0  0  0  0  0  0
   57.6265   -5.0355   -9.8790 C   0  0  0  0  0  0  0  0  0  0  0  0
   56.6522   -3.9876  -10.4279 C   0  0  0  0  0  0  0  0  0  0  0  0
   56.8607   -3.8741  -11.9491 C   0  0  0  0  0  0  0  0  0  0  0  0
 35 36  1  0  0  0
 36 37  1  0  0  0
 36 34  1  0  0  0
 34  1  1  0  0  0
  1  2  1  0  0  0
  2  3  1  0  0  0
  3  4  2  0  0  0
  3  6  1  0  0  0
  6  7  1  0  0  0
  6  9  1  0  0  0
  9 10  1  0  0  0
  9 13  1  0  0  0
 13 14  1  0  0  0
 14 15  2  0  0  0
 15 16  1  0  0  0
 16 17  2  0  0  0
 17 18  1  0  0  0
 18 19  2  0  0  0
  1 20  1  0  0  0
 20 21  2  0  0  0
 20 22  1  0  0  0
 22 23  1  0  0  0
 23 24  1  0  0  0
 24 25  1  0  0  0
 25 26  2  0  0  0
 26 27  1  0  0  0
 26 28  1  0  0  0
 28 29  2  0  0  0
 28 30  1  0  0  0
 30 31  1  0  0  0
 31 32  2  0  0  0
 19 14  1  0  0  0
 31 24  1  0  0  0
  2  5  1  0  0  0
  7  8  1  0  0  0
 10 11  1  0  0  0
 10 12  1  0  0  0
 30 33  1  0  0  0
M  END
> <minimizedAffinity>
-8.48821

> <CNNscore>
0.6676442623

> <CNNaffinity>
7.2823624611

> <CNN_VS>
4.8620276451

> <CNNaffinity_variance>
0.0730526894

$$$$
[H]Cl.[H]O[C@]([H])(C(=O)N([H])[C@]([H])(C(=O)OC([H])([H])n1c([H])c(F)c(=O)n([H])c1=O)C([H])([H])C([H])(C([H])([H])[H])C([H])([H])[H])[C@]([H])(N([H])[H])C([H])([H])c1c([H])c([H])c([H])c([H])c1[H]


 37 38  0  0  0  0  0  0  0  0999 V2000
   55.4756   -4.6115   -7.8669 C   0  0  0  0  0  0  0  0  0  0  0  0
   56.1148   -3.9452   -9.0085 N   0  0  0  0  0  0  0  0  0  0  0  0
   57.1063   -4.5984   -9.7905 C   0  0  0  0  0  0  0  0  0  0  0  0
   57.4229   -5.7678   -9.4762 O   0  0  0  0  0  0  0  0  0  0  0  0
   55.8600   -2.9707   -9.2805 H   0  0  0  0  0  0  0  0  0  0  0  0
   57.7640   -3.9434  -10.9483 C   0  0  0  0  0  0  0  0  0  0  0  0
   58.7373   -4.7905  -11.4602 O   0  0  0  0  0  0  0  0  0  0  0  0
   58.3262   -5.4123  -12.1052 H   0  0  0  0  0  0  0  0  0  0  0  0
   56.7718   -3.6288  -12.0591 C   0  0  0  0  0  0  0  0  0  0  0  0
   55.4174   -3.7476  -11.6201 N   0  0  0  0  0  0  0  0  0  0  0  0
   54.7838   -3.0098  -11.9812 H   0  0  0  0  0  0  0  0  0  0  0  0
   55.0177   -4.6894  -11.6257 H   0  0  0  0  0  0  0  0  0  0  0  0
   57.0692   -4.5741  -13.1910 C   0  0  0  0  0  0  0  0  0  0  0  0
   57.0459   -3.9281  -14.5194 C   0  0  0  0  0  0  0  0  0  0  0  0
   55.8978   -3.8365  -15.2888 C   0  0  0  0  0  0  0  0  0  0  0  0
   55.8796   -3.2302  -16.5329 C   0  0  0  0  0  0  0  0  0  0  0  0
   57.0287   -2.6961  -17.0372 C   0  0  0  0  0  0  0  0  0  0  0  0
   58.1905   -2.7633  -16.3109 C   0  0  0  0  0  0  0  0  0  0  0  0
   58.1964   -3.3661  -15.0802 C   0  0  0  0  0  0  0  0  0  0  0  0
   54.0156   -4.3495   -7.8989 C   0  0  0  0  0  0  0  0  0  0  0  0
   53.5579   -3.7912   -8.9573 O   0  0  0  0  0  0  0  0  0  0  0  0
   53.1030   -4.6313   -6.9428 O   0  0  0  0  0  0  0  0  0  0  0  0
   51.8230   -5.1262   -6.9954 C   0  0  0  0  0  0  0  0  0  0  0  0
   50.8268   -4.4975   -6.1901 N   0  0  0  0  0  0  0  0  0  0  0  0
   50.3733   -4.9169   -4.9999 C   0  0  0  0  0  0  0  0  0  0  0  0
   49.3748   -4.2302   -4.2976 C   0  0  0  0  0  0  0  0  0  0  0  0
   48.9361   -4.6720   -3.1020 F   0  0  0  0  0  0  0  0  0  0  0  0
   48.8330   -3.0921   -4.8296 C   0  0  0  0  0  0  0  0  0  0  0  0
   47.9394   -2.4038   -4.2890 O   0  0  0  0  0  0  0  0  0  0  0  0
   49.3083   -2.6896   -6.0338 N   0  0  0  0  0  0  0  0  0  0  0  0
   50.2584   -3.3648   -6.6757 C   0  0  0  0  0  0  0  0  0  0  0  0
   50.6352   -2.8988   -7.8058 O   0  0  0  0  0  0  0  0  0  0  0  0
   48.9047   -1.8132   -6.4648 H   0  0  0  0  0  0  0  0  0  0  0  0
   56.1621   -4.2591   -6.5967 C   0  0  0  0  0  0  0  0  0  0  0  0
   56.7185   -6.4209   -5.4658 C   0  0  0  0  0  0  0  0  0  0  0  0
   55.8257   -5.1753   -5.4678 C   0  0  0  0  0  0  0  0  0  0  0  0
   56.0042   -4.4426   -4.1254 C   0  0  0  0  0  0  0  0  0  0  0  0
 35 36  1  0  0  0
 36 37  1  0  0  0
 36 34  1  0  0  0
 34  1  1  0  0  0
  1  2  1  0  0  0
  2  3  1  0  0  0
  3  4  2  0  0  0
  3  6  1  0  0  0
  6  7  1  0  0  0
  6  9  1  0  0  0
  9 10  1  0  0  0
  9 13  1  0  0  0
 13 14  1  0  0  0
 14 15  2  0  0  0
 15 16  1  0  0  0
 16 17  2  0  0  0
 17 18  1  0  0  0
 18 19  2  0  0  0
  1 20  1  0  0  0
 20 21  2  0  0  0
 20 22  1  0  0  0
 22 23  1  0  0  0
 23 24  1  0  0  0
 24 25  1  0  0  0
 25 26  2  0  0  0
 26 27  1  0  0  0
 26 28  1  0  0  0
 28 29  2  0  0  0
 28 30  1  0  0  0
 30 31  1  0  0  0
 31 32  2  0  0  0
 19 14  1  0  0  0
 31 24  1  0  0  0
  2  5  1  0  0  0
  7  8  1  0  0  0
 10 11  1  0  0  0
 10 12  1  0  0  0
 30 33  1  0  0  0
M  END
> <minimizedAffinity>
-7.69377

> <CNNscore>
0.6131032109

> <CNNaffinity>
6.8523774147

> <CNN_VS>
4.2012147903

> <CNNaffinity_variance>
0.0217436813

$$$$
[H]Cl.[H]O[C@]([H])(C(=O)N([H])[C@]([H])(C(=O)OC([H])([H])n1c([H])c(F)c(=O)n([H])c1=O)C([H])([H])C([H])(C([H])([H])[H])C([H])([H])[H])[C@]([H])(N([H])[H])C([H])([H])c1c([H])c([H])c([H])c([H])c1[H]


 37 38  0  0  0  0  0  0  0  0999 V2000
   55.5334   -6.8310   -4.9301 C   0  0  0  0  0  0  0  0  0  0  0  0
   56.3425   -6.3896   -6.0730 N   0  0  0  0  0  0  0  0  0  0  0  0
   56.5060   -5.0110   -6.3796 C   0  0  0  0  0  0  0  0  0  0  0  0
   55.9360   -4.1758   -5.6421 O   0  0  0  0  0  0  0  0  0  0  0  0
   56.8224   -7.0757   -6.6955 H   0  0  0  0  0  0  0  0  0  0  0  0
   57.3196   -4.5438   -7.5293 C   0  0  0  0  0  0  0  0  0  0  0  0
   58.2991   -5.4868   -7.8090 O   0  0  0  0  0  0  0  0  0  0  0  0
   57.9305   -6.1758   -8.4099 H   0  0  0  0  0  0  0  0  0  0  0  0
   56.4730   -4.3487   -8.7794 C   0  0  0  0  0  0  0  0  0  0  0  0
   55.0831   -4.5616   -8.5263 N   0  0  0  0  0  0  0  0  0  0  0  0
   54.4530   -3.8902   -9.0043 H   0  0  0  0  0  0  0  0  0  0  0  0
   54.7603   -5.5323   -8.5444 H   0  0  0  0  0  0  0  0  0  0  0  0
   56.9973   -5.3050   -9.8156 C   0  0  0  0  0  0  0  0  0  0  0  0
   57.2613   -4.6701  -11.1232 C   0  0  0  0  0  0  0  0  0  0  0  0
   58.5410   -4.4354  -11.5982 C   0  0  0  0  0  0  0  0  0  0  0  0
   58.7846   -3.8406  -12.8241 C   0  0  0  0  0  0  0  0  0  0  0  0
   57.7347   -3.4640  -13.6089 C   0  0  0  0  0  0  0  0  0  0  0  0
   56.4491   -3.6764  -13.1797 C   0  0  0  0  0  0  0  0  0  0  0  0
   56.2202   -4.2662  -11.9640 C   0  0  0  0  0  0  0  0  0  0  0  0
   54.1016   -6.5578   -5.2063 C   0  0  0  0  0  0  0  0  0  0  0  0
   53.2973   -6.6649   -4.2147 O   0  0  0  0  0  0  0  0  0  0  0  0
   53.5381   -6.2055   -6.3831 O   0  0  0  0  0  0  0  0  0  0  0  0
   52.2422   -6.2256   -6.8371 C   0  0  0  0  0  0  0  0  0  0  0  0
   51.3246   -5.2798   -6.2896 N   0  0  0  0  0  0  0  0  0  0  0  0
   50.4828   -5.4773   -5.2647 C   0  0  0  0  0  0  0  0  0  0  0  0
   49.6068   -4.4809   -4.8158 C   0  0  0  0  0  0  0  0  0  0  0  0
   48.7702   -4.7039   -3.7826 F   0  0  0  0  0  0  0  0  0  0  0  0
   49.5965   -3.2598   -5.4327 C   0  0  0  0  0  0  0  0  0  0  0  0
   48.8572   -2.3025   -5.1138 O   0  0  0  0  0  0  0  0  0  0  0  0
   50.4564   -3.0857   -6.4662 N   0  0  0  0  0  0  0  0  0  0  0  0
   51.2767   -4.0532   -6.8685 C   0  0  0  0  0  0  0  0  0  0  0  0
   52.0478   -3.7845   -7.8532 O   0  0  0  0  0  0  0  0  0  0  0  0
   50.4663   -2.1507   -6.9585 H   0  0  0  0  0  0  0  0  0  0  0  0
   56.0600   -6.2668   -3.6600 C   0  0  0  0  0  0  0  0  0  0  0  0
   57.1631   -8.2972   -2.6995 C   0  0  0  0  0  0  0  0  0  0  0  0
   56.0614   -7.2450   -2.5330 C   0  0  0  0  0  0  0  0  0  0  0  0
   56.2842   -6.5094   -1.1989 C   0  0  0  0  0  0  0  0  0  0  0  0
 35 36  1  0  0  0
 36 37  1  0  0  0
 36 34  1  0  0  0
 34  1  1  0  0  0
  1  2  1  0  0  0
  2  3  1  0  0  0
  3  4  2  0  0  0
  3  6  1  0  0  0
  6  7  1  0  0  0
  6  9  1  0  0  0
  9 10  1  0  0  0
  9 13  1  0  0  0
 13 14  1  0  0  0
 14 15  2  0  0  0
 15 16  1  0  0  0
 16 17  2  0  0  0
 17 18  1  0  0  0
 18 19  2  0  0  0
  1 20  1  0  0  0
 20 21  2  0  0  0
 20 22  1  0  0  0
 22 23  1  0  0  0
 23 24  1  0  0  0
 24 25  1  0  0  0
 25 26  2  0  0  0
 26 27  1  0  0  0
 26 28  1  0  0  0
 28 29  2  0  0  0
 28 30  1  0  0  0
 30 31  1  0  0  0
 31 32  2  0  0  0
 19 14  1  0  0  0
 31 24  1  0  0  0
  2  5  1  0  0  0
  7  8  1  0  0  0
 10 11  1  0  0  0
 10 12  1  0  0  0
 30 33  1  0  0  0
M  END
> <minimizedAffinity>
-7.46668

> <CNNscore>
0.4689550400

> <CNNaffinity>
6.6260175705

> <CNN_VS>
3.1073043346

> <CNNaffinity_variance>
0.0288622417

$$$$
[H]Cl.[H]O[C@]([H])(C(=O)N([H])[C@]([H])(C(=O)OC([H])([H])n1c([H])c(F)c(=O)n([H])c1=O)C([H])([H])C([H])(C([H])([H])[H])C([H])([H])[H])[C@]([H])(N([H])[H])C([H])([H])c1c([H])c([H])c([H])c([H])c1[H]


 37 38  0  0  0  0  0  0  0  0999 V2000
   55.6232   -4.4165   -7.0841 C   0  0  0  0  0  0  0  0  0  0  0  0
   56.1079   -5.6572   -6.4663 N   0  0  0  0  0  0  0  0  0  0  0  0
   56.2817   -5.7685   -5.0596 C   0  0  0  0  0  0  0  0  0  0  0  0
   56.0081   -4.7707   -4.3555 O   0  0  0  0  0  0  0  0  0  0  0  0
   56.3397   -6.4957   -7.0422 H   0  0  0  0  0  0  0  0  0  0  0  0
   56.7696   -7.0130   -4.4153 C   0  0  0  0  0  0  0  0  0  0  0  0
   58.1126   -7.1886   -4.7194 O   0  0  0  0  0  0  0  0  0  0  0  0
   58.6645   -6.6920   -4.0710 H   0  0  0  0  0  0  0  0  0  0  0  0
   56.6253   -6.9600   -2.9008 C   0  0  0  0  0  0  0  0  0  0  0  0
   57.8148   -7.3831   -2.2320 N   0  0  0  0  0  0  0  0  0  0  0  0
   58.0589   -6.8206   -1.3952 H   0  0  0  0  0  0  0  0  0  0  0  0
   57.9371   -8.3921   -2.1147 H   0  0  0  0  0  0  0  0  0  0  0  0
   55.4523   -7.8313   -2.5431 C   0  0  0  0  0  0  0  0  0  0  0  0
   54.2184   -7.0704   -2.2585 C   0  0  0  0  0  0  0  0  0  0  0  0
   52.9523   -7.5761   -2.5029 C   0  0  0  0  0  0  0  0  0  0  0  0
   51.7983   -6.8604   -2.2347 C   0  0  0  0  0  0  0  0  0  0  0  0
   51.8926   -5.6056   -1.7086 C   0  0  0  0  0  0  0  0  0  0  0  0
   53.1258   -5.0632   -1.4499 C   0  0  0  0  0  0  0  0  0  0  0  0
   54.2615   -5.7813   -1.7196 C   0  0  0  0  0  0  0  0  0  0  0  0
   54.2225   -4.6062   -7.5349 C   0  0  0  0  0  0  0  0  0  0  0  0
   53.9184   -4.1150   -8.6785 O   0  0  0  0  0  0  0  0  0  0  0  0
   53.2219   -5.2394   -6.8836 O   0  0  0  0  0  0  0  0  0  0  0  0
   51.8835   -5.3874   -7.1533 C   0  0  0  0  0  0  0  0  0  0  0  0
   50.9521   -4.6786   -6.3370 N   0  0  0  0  0  0  0  0  0  0  0  0
   50.4517   -5.0761   -5.1582 C   0  0  0  0  0  0  0  0  0  0  0  0
   49.5244   -4.3071   -4.4436 C   0  0  0  0  0  0  0  0  0  0  0  0
   49.0364   -4.7285   -3.2598 F   0  0  0  0  0  0  0  0  0  0  0  0
   49.1044   -3.1081   -4.9512 C   0  0  0  0  0  0  0  0  0  0  0  0
   48.2825   -2.3446   -4.3978 O   0  0  0  0  0  0  0  0  0  0  0  0
   49.6247   -2.7293   -6.1443 N   0  0  0  0  0  0  0  0  0  0  0  0
   50.5047   -3.4833   -6.7984 C   0  0  0  0  0  0  0  0  0  0  0  0
   50.9332   -3.0329   -7.9164 O   0  0  0  0  0  0  0  0  0  0  0  0
   49.3150   -1.8069   -6.5565 H   0  0  0  0  0  0  0  0  0  0  0  0
   56.5716   -3.9378   -8.1234 C   0  0  0  0  0  0  0  0  0  0  0  0
   56.9300   -4.6104  -10.5070 C   0  0  0  0  0  0  0  0  0  0  0  0
   57.0471   -5.0196   -9.0347 C   0  0  0  0  0  0  0  0  0  0  0  0
   58.5205   -5.3501   -8.7340 C   0  0  0  0  0  0  0  0  0  0  0  0
 35 36  1  0  0  0
 36 37  1  0  0  0
 36 34  1  0  0  0
 34  1  1  0  0  0
  1  2  1  0  0  0
  2  3  1  0  0  0
  3  4  2  0  0  0
  3  6  1  0  0  0
  6  7  1  0  0  0
  6  9  1  0  0  0
  9 10  1  0  0  0
  9 13  1  0  0  0
 13 14  1  0  0  0
 14 15  2  0  0  0
 15 16  1  0  0  0
 16 17  2  0  0  0
 17 18  1  0  0  0
 18 19  2  0  0  0
  1 20  1  0  0  0
 20 21  2  0  0  0
 20 22  1  0  0  0
 22 23  1  0  0  0
 23 24  1  0  0  0
 24 25  1  0  0  0
 25 26  2  0  0  0
 26 27  1  0  0  0
 26 28  1  0  0  0
 28 29  2  0  0  0
 28 30  1  0  0  0
 30 31  1  0  0  0
 31 32  2  0  0  0
 19 14  1  0  0  0
 31 24  1  0  0  0
  2  5  1  0  0  0
  7  8  1  0  0  0
 10 11  1  0  0  0
 10 12  1  0  0  0
 30 33  1  0  0  0
M  END
> <minimizedAffinity>
-8.28529

> <CNNscore>
0.4458643496

> <CNNaffinity>
6.5625982285

> <CNN_VS>
2.9260284901

> <CNNaffinity_variance>
0.5431176424

$$$$
[H]Cl.[H]O[C@]([H])(C(=O)N([H])[C@]([H])(C(=O)OC([H])([H])n1c([H])c(F)c(=O)n([H])c1=O)C([H])([H])C([H])(C([H])([H])[H])C([H])([H])[H])[C@]([H])(N([H])[H])C([H])([H])c1c([H])c([H])c([H])c([H])c1[H]


 37 38  0  0  0  0  0  0  0  0999 V2000
   53.9870   -5.1737   -6.7492 C   0  0  0  0  0  0  0  0  0  0  0  0
   55.0809   -5.3133   -7.7186 N   0  0  0  0  0  0  0  0  0  0  0  0
   55.8851   -4.2036   -8.0968 C   0  0  0  0  0  0  0  0  0  0  0  0
   55.6327   -3.0937   -7.5764 O   0  0  0  0  0  0  0  0  0  0  0  0
   55.3011   -6.2328   -8.1597 H   0  0  0  0  0  0  0  0  0  0  0  0
   56.9954   -4.3233   -9.0740 C   0  0  0  0  0  0  0  0  0  0  0  0
   57.4303   -5.6409   -9.1122 O   0  0  0  0  0  0  0  0  0  0  0  0
   56.8774   -6.1516   -9.7487 H   0  0  0  0  0  0  0  0  0  0  0  0
   56.5603   -3.9226  -10.4766 C   0  0  0  0  0  0  0  0  0  0  0  0
   55.1383   -3.8655  -10.6030 N   0  0  0  0  0  0  0  0  0  0  0  0
   54.7901   -3.0672  -11.1666 H   0  0  0  0  0  0  0  0  0  0  0  0
   54.6612   -4.7522  -10.7843 H   0  0  0  0  0  0  0  0  0  0  0  0
   57.1578   -4.9277  -11.4231 C   0  0  0  0  0  0  0  0  0  0  0  0
   57.0894   -4.5157  -12.8402 C   0  0  0  0  0  0  0  0  0  0  0  0
   57.9843   -3.6224  -13.4054 C   0  0  0  0  0  0  0  0  0  0  0  0
   57.9175   -3.2388  -14.7337 C   0  0  0  0  0  0  0  0  0  0  0  0
   56.9379   -3.7509  -15.5326 C   0  0  0  0  0  0  0  0  0  0  0  0
   56.0288   -4.6391  -15.0164 C   0  0  0  0  0  0  0  0  0  0  0  0
   56.1049   -5.0115  -13.6998 C   0  0  0  0  0  0  0  0  0  0  0  0
   54.1357   -6.2005   -5.6886 C   0  0  0  0  0  0  0  0  0  0  0  0
   55.1393   -6.9899   -5.7937 O   0  0  0  0  0  0  0  0  0  0  0  0
   53.3379   -6.4052   -4.6171 O   0  0  0  0  0  0  0  0  0  0  0  0
   53.5951   -6.5087   -3.2721 C   0  0  0  0  0  0  0  0  0  0  0  0
   52.6288   -7.1651   -2.4526 N   0  0  0  0  0  0  0  0  0  0  0  0
   52.6216   -8.4582   -2.0976 C   0  0  0  0  0  0  0  0  0  0  0  0
   51.6101   -9.0073   -1.2993 C   0  0  0  0  0  0  0  0  0  0  0  0
   51.6257  -10.3106   -0.9555 F   0  0  0  0  0  0  0  0  0  0  0  0
   50.5878   -8.2119   -0.8588 C   0  0  0  0  0  0  0  0  0  0  0  0
   49.6371   -8.5980   -0.1436 O   0  0  0  0  0  0  0  0  0  0  0  0
   50.6181   -6.9089   -1.2318 N   0  0  0  0  0  0  0  0  0  0  0  0
   51.5940   -6.4178   -1.9914 C   0  0  0  0  0  0  0  0  0  0  0  0
   51.5271   -5.1747   -2.2858 O   0  0  0  0  0  0  0  0  0  0  0  0
   49.8387   -6.2750   -0.9038 H   0  0  0  0  0  0  0  0  0  0  0  0
   52.6701   -5.1497   -7.4377 C   0  0  0  0  0  0  0  0  0  0  0  0
   51.4784   -2.9825   -7.8189 C   0  0  0  0  0  0  0  0  0  0  0  0
   51.7187   -4.1548   -6.8614 C   0  0  0  0  0  0  0  0  0  0  0  0
   50.3672   -4.8305   -6.5656 C   0  0  0  0  0  0  0  0  0  0  0  0
 35 36  1  0  0  0
 36 37  1  0  0  0
 36 34  1  0  0  0
 34  1  1  0  0  0
  1  2  1  0  0  0
  2  3  1  0  0  0
  3  4  2  0  0  0
  3  6  1  0  0  0
  6  7  1  0  0  0
  6  9  1  0  0  0
  9 10  1  0  0  0
  9 13  1  0  0  0
 13 14  1  0  0  0
 14 15  2  0  0  0
 15 16  1  0  0  0
 16 17  2  0  0  0
 17 18  1  0  0  0
 18 19  2  0  0  0
  1 20  1  0  0  0
 20 21  2  0  0  0
 20 22  1  0  0  0
 22 23  1  0  0  0
 23 24  1  0  0  0
 24 25  1  0  0  0
 25 26  2  0  0  0
 26 27  1  0  0  0
 26 28  1  0  0  0
 28 29  2  0  0  0
 28 30  1  0  0  0
 30 31  1  0  0  0
 31 32  2  0  0  0
 19 14  1  0  0  0
 31 24  1  0  0  0
  2  5  1  0  0  0
  7  8  1  0  0  0
 10 11  1  0  0  0
 10 12  1  0  0  0
 30 33  1  0  0  0
M  END
> <minimizedAffinity>
-7.85789

> <CNNscore>
0.4381084442

> <CNNaffinity>
6.4834566116

> <CNN_VS>
2.8404572010

> <CNNaffinity_variance>
0.1425449699

$$$$
