[H]c1nc(N([H])C([H])([H])C([H])([H])N(C([H])([H])C([H])([H])[H])C([H])([H])C([H])([H])[H])nc2c1C([H])([H])C([H])([H])c1c(C(=O)N([H])[H])nn(C#N)c1-2


 29 31  0  0  0  0  0  0  0  0999 V2000
   53.3382   -3.3930   -9.1632 C   0  0  0  0  0  0  0  0  0  0  0  0
   52.4144   -2.4663   -9.4461 N   0  0  0  0  0  0  0  0  0  0  0  0
   51.3372   -2.2068   -8.7064 C   0  0  0  0  0  0  0  0  0  0  0  0
   51.1806   -2.9870   -7.5313 C   0  0  0  0  0  0  0  0  0  0  0  0
   50.0197   -2.7347   -6.6820 C   0  0  0  0  0  0  0  0  0  0  0  0
   49.8390   -3.5347   -5.4646 C   0  0  0  0  0  0  0  0  0  0  0  0
   50.8675   -4.5327   -5.1702 C   0  0  0  0  0  0  0  0  0  0  0  0
   50.9562   -5.4119   -4.0918 C   0  0  0  0  0  0  0  0  0  0  0  0
   52.0946   -6.1117   -4.3249 N   0  0  0  0  0  0  0  0  0  0  0  0
   52.6635   -5.7027   -5.4497 N   0  0  0  0  0  0  0  0  0  0  0  0
   51.9387   -4.7260   -6.0080 C   0  0  0  0  0  0  0  0  0  0  0  0
   52.1097   -3.9394   -7.2212 C   0  0  0  0  0  0  0  0  0  0  0  0
   53.1750   -4.1345   -8.0342 N   0  0  0  0  0  0  0  0  0  0  0  0
   50.0601   -5.5555   -2.9543 C   0  0  0  0  0  0  0  0  0  0  0  0
   50.5226   -6.2580   -1.8181 N   0  0  0  0  0  0  0  0  0  0  0  0
   48.9130   -5.0800   -2.9668 O   0  0  0  0  0  0  0  0  0  0  0  0
   50.4825   -7.3085   -1.7462 H   0  0  0  0  0  0  0  0  0  0  0  0
   50.9317   -5.7694   -0.9811 H   0  0  0  0  0  0  0  0  0  0  0  0
   54.4643   -3.6100   -9.9820 N   0  0  0  0  0  0  0  0  0  0  0  0
   54.3079   -3.8461  -11.0038 H   0  0  0  0  0  0  0  0  0  0  0  0
   55.8064   -3.5244   -9.4859 C   0  0  0  0  0  0  0  0  0  0  0  0
   56.5437   -4.8219   -9.6538 C   0  0  0  0  0  0  0  0  0  0  0  0
   57.7425   -4.5949  -10.4500 N   0  0  0  0  0  0  0  0  0  0  0  0
   59.1784   -5.6329   -8.7168 C   0  0  0  0  0  0  0  0  0  0  0  0
   58.7309   -5.6372  -10.1350 C   0  0  0  0  0  0  0  0  0  0  0  0
   57.4779   -4.6106  -11.8831 C   0  0  0  0  0  0  0  0  0  0  0  0
   58.6291   -3.8205  -12.5304 C   0  0  0  0  0  0  0  0  0  0  0  0
   53.8603   -6.2374   -5.9691 C   0  0  0  0  0  0  0  0  0  0  0  0
   54.8339   -6.6946   -6.4065 N   0  0  0  0  0  0  0  0  0  0  0  0
 24 25  1  0  0  0
 25 23  1  0  0  0
 23 26  1  0  0  0
 26 27  1  0  0  0
 23 22  1  0  0  0
 22 21  1  0  0  0
 21 19  1  0  0  0
 19  1  1  0  0  0
  1  2  2  0  0  0
  2  3  1  0  0  0
  3  4  2  0  0  0
  4  5  1  0  0  0
  5  6  1  0  0  0
  6  7  1  0  0  0
  7  8  1  0  0  0
  8  9  2  0  0  0
  9 10  1  0  0  0
 10 28  1  0  0  0
 28 29  3  0  0  0
 10 11  1  0  0  0
 11 12  1  0  0  0
 12 13  2  0  0  0
  8 14  1  0  0  0
 14 15  1  0  0  0
 14 16  2  0  0  0
 13  1  1  0  0  0
 12  4  1  0  0  0
 11  7  2  0  0  0
 19 20  1  0  0  0
 15 17  1  0  0  0
 15 18  1  0  0  0
M  END
> <minimizedAffinity>
-8.26575

> <CNNscore>
0.7983329892

> <CNNaffinity>
7.1353178024

> <CNN_VS>
5.6963596344

> <CNNaffinity_variance>
0.0576296523

$$$$
[H]c1nc(N([H])C([H])([H])C([H])([H])N(C([H])([H])C([H])([H])[H])C([H])([H])C([H])([H])[H])nc2c1C([H])([H])C([H])([H])c1c(C(=O)N([H])[H])nn(C#N)c1-2


 29 31  0  0  0  0  0  0  0  0999 V2000
   53.1123   -3.4249   -9.2894 C   0  0  0  0  0  0  0  0  0  0  0  0
   52.2750   -2.3998   -9.4896 N   0  0  0  0  0  0  0  0  0  0  0  0
   51.2670   -2.0648   -8.6854 C   0  0  0  0  0  0  0  0  0  0  0  0
   51.0891   -2.8735   -7.5328 C   0  0  0  0  0  0  0  0  0  0  0  0
   50.0025   -2.5420   -6.6151 C   0  0  0  0  0  0  0  0  0  0  0  0
   49.8008   -3.3697   -5.4197 C   0  0  0  0  0  0  0  0  0  0  0  0
   50.7355   -4.4768   -5.2161 C   0  0  0  0  0  0  0  0  0  0  0  0
   50.7864   -5.4044   -4.1765 C   0  0  0  0  0  0  0  0  0  0  0  0
   51.8351   -6.2040   -4.4943 N   0  0  0  0  0  0  0  0  0  0  0  0
   52.3873   -5.8076   -5.6318 N   0  0  0  0  0  0  0  0  0  0  0  0
   51.7395   -4.7411   -6.1155 C   0  0  0  0  0  0  0  0  0  0  0  0
   51.9305   -3.9259   -7.3066 C   0  0  0  0  0  0  0  0  0  0  0  0
   52.9296   -4.1926   -8.1810 N   0  0  0  0  0  0  0  0  0  0  0  0
   49.9367   -5.5048   -2.9995 C   0  0  0  0  0  0  0  0  0  0  0  0
   50.4484   -6.1564   -1.8540 N   0  0  0  0  0  0  0  0  0  0  0  0
   48.7867   -5.0363   -2.9865 O   0  0  0  0  0  0  0  0  0  0  0  0
   50.4185   -7.2032   -1.7368 H   0  0  0  0  0  0  0  0  0  0  0  0
   50.8866   -5.6309   -1.0551 H   0  0  0  0  0  0  0  0  0  0  0  0
   54.1694   -3.7191  -10.1736 N   0  0  0  0  0  0  0  0  0  0  0  0
   54.1369   -3.3132  -11.1525 H   0  0  0  0  0  0  0  0  0  0  0  0
   55.2806   -4.5437   -9.7995 C   0  0  0  0  0  0  0  0  0  0  0  0
   56.2449   -3.8072   -8.9146 C   0  0  0  0  0  0  0  0  0  0  0  0
   56.2841   -4.4480   -7.6068 N   0  0  0  0  0  0  0  0  0  0  0  0
   58.3546   -5.2503   -8.7078 C   0  0  0  0  0  0  0  0  0  0  0  0
   57.4049   -5.3994   -7.5732 C   0  0  0  0  0  0  0  0  0  0  0  0
   56.4402   -3.4935   -6.5166 C   0  0  0  0  0  0  0  0  0  0  0  0
   56.1342   -4.2762   -5.2273 C   0  0  0  0  0  0  0  0  0  0  0  0
   53.4968   -6.4371   -6.2324 C   0  0  0  0  0  0  0  0  0  0  0  0
   54.4241   -6.9395   -6.7182 N   0  0  0  0  0  0  0  0  0  0  0  0
 24 25  1  0  0  0
 25 23  1  0  0  0
 23 26  1  0  0  0
 26 27  1  0  0  0
 23 22  1  0  0  0
 22 21  1  0  0  0
 21 19  1  0  0  0
 19  1  1  0  0  0
  1  2  2  0  0  0
  2  3  1  0  0  0
  3  4  2  0  0  0
  4  5  1  0  0  0
  5  6  1  0  0  0
  6  7  1  0  0  0
  7  8  1  0  0  0
  8  9  2  0  0  0
  9 10  1  0  0  0
 10 28  1  0  0  0
 28 29  3  0  0  0
 10 11  1  0  0  0
 11 12  1  0  0  0
 12 13  2  0  0  0
  8 14  1  0  0  0
 14 15  1  0  0  0
 14 16  2  0  0  0
 13  1  1  0  0  0
 12  4  1  0  0  0
 11  7  2  0  0  0
 19 20  1  0  0  0
 15 17  1  0  0  0
 15 18  1  0  0  0
M  END
> <minimizedAffinity>
-7.46471

> <CNNscore>
0.7189588547

> <CNNaffinity>
7.2022032738

> <CNN_VS>
5.1780877113

> <CNNaffinity_variance>
0.0744832009

$$$$
[H]c1nc(N([H])C([H])([H])C([H])([H])N(C([H])([H])C([H])([H])[H])C([H])([H])C([H])([H])[H])nc2c1C([H])([H])C([H])([H])c1c(C(=O)N([H])[H])nn(C#N)c1-2


 29 31  0  0  0  0  0  0  0  0999 V2000
   54.4748   -3.9922   -9.2168 C   0  0  0  0  0  0  0  0  0  0  0  0
   53.6492   -3.0687   -9.7245 N   0  0  0  0  0  0  0  0  0  0  0  0
   52.4816   -2.7092   -9.1933 C   0  0  0  0  0  0  0  0  0  0  0  0
   52.1073   -3.3714   -7.9952 C   0  0  0  0  0  0  0  0  0  0  0  0
   50.8394   -3.0064   -7.3691 C   0  0  0  0  0  0  0  0  0  0  0  0
   50.4338   -3.6837   -6.1315 C   0  0  0  0  0  0  0  0  0  0  0  0
   51.3577   -4.6802   -5.5895 C   0  0  0  0  0  0  0  0  0  0  0  0
   51.2362   -5.4573   -4.4383 C   0  0  0  0  0  0  0  0  0  0  0  0
   52.3649   -6.2095   -4.4231 N   0  0  0  0  0  0  0  0  0  0  0  0
   53.1215   -5.9244   -5.4730 N   0  0  0  0  0  0  0  0  0  0  0  0
   52.5379   -4.9828   -6.2238 C   0  0  0  0  0  0  0  0  0  0  0  0
   52.9327   -4.3181   -7.4576 C   0  0  0  0  0  0  0  0  0  0  0  0
   54.1030   -4.6200   -8.0684 N   0  0  0  0  0  0  0  0  0  0  0  0
   50.1666   -5.4674   -3.4517 C   0  0  0  0  0  0  0  0  0  0  0  0
   50.4352   -6.0091   -2.1739 N   0  0  0  0  0  0  0  0  0  0  0  0
   49.0390   -5.0166   -3.7114 O   0  0  0  0  0  0  0  0  0  0  0  0
   50.3790   -7.0420   -1.9731 H   0  0  0  0  0  0  0  0  0  0  0  0
   50.7051   -5.4096   -1.3528 H   0  0  0  0  0  0  0  0  0  0  0  0
   55.7051   -4.3182   -9.8216 N   0  0  0  0  0  0  0  0  0  0  0  0
   56.5140   -4.6045   -9.1987 H   0  0  0  0  0  0  0  0  0  0  0  0
   55.9018   -4.2760  -11.2408 C   0  0  0  0  0  0  0  0  0  0  0  0
   57.3428   -4.0440  -11.5945 C   0  0  0  0  0  0  0  0  0  0  0  0
   57.5931   -4.5373  -12.9423 N   0  0  0  0  0  0  0  0  0  0  0  0
   56.2625   -4.0669  -14.9797 C   0  0  0  0  0  0  0  0  0  0  0  0
   56.3080   -4.7049  -13.6372 C   0  0  0  0  0  0  0  0  0  0  0  0
   58.4396   -3.6424  -13.7212 C   0  0  0  0  0  0  0  0  0  0  0  0
   59.8315   -3.7081  -13.0680 C   0  0  0  0  0  0  0  0  0  0  0  0
   54.3603   -6.5408   -5.7444 C   0  0  0  0  0  0  0  0  0  0  0  0
   55.3910   -7.0287   -5.9630 N   0  0  0  0  0  0  0  0  0  0  0  0
 24 25  1  0  0  0
 25 23  1  0  0  0
 23 26  1  0  0  0
 26 27  1  0  0  0
 23 22  1  0  0  0
 22 21  1  0  0  0
 21 19  1  0  0  0
 19  1  1  0  0  0
  1  2  2  0  0  0
  2  3  1  0  0  0
  3  4  2  0  0  0
  4  5  1  0  0  0
  5  6  1  0  0  0
  6  7  1  0  0  0
  7  8  1  0  0  0
  8  9  2  0  0  0
  9 10  1  0  0  0
 10 28  1  0  0  0
 28 29  3  0  0  0
 10 11  1  0  0  0
 11 12  1  0  0  0
 12 13  2  0  0  0
  8 14  1  0  0  0
 14 15  1  0  0  0
 14 16  2  0  0  0
 13  1  1  0  0  0
 12  4  1  0  0  0
 11  7  2  0  0  0
 19 20  1  0  0  0
 15 17  1  0  0  0
 15 18  1  0  0  0
M  END
> <minimizedAffinity>
-8.05608

> <CNNscore>
0.6840260625

> <CNNaffinity>
7.0912756920

> <CNN_VS>
4.8506174088

> <CNNaffinity_variance>
0.2633908987

$$$$
[H]c1nc(N([H])C([H])([H])C([H])([H])N(C([H])([H])C([H])([H])[H])C([H])([H])C([H])([H])[H])nc2c1C([H])([H])C([H])([H])c1c(C(=O)N([H])[H])nn(C#N)c1-2


 29 31  0  0  0  0  0  0  0  0999 V2000
   54.8693   -5.2025   -6.0232 C   0  0  0  0  0  0  0  0  0  0  0  0
   55.9877   -5.7742   -5.5600 N   0  0  0  0  0  0  0  0  0  0  0  0
   57.1020   -5.9613   -6.2658 C   0  0  0  0  0  0  0  0  0  0  0  0
   57.0756   -5.5095   -7.6109 C   0  0  0  0  0  0  0  0  0  0  0  0
   58.2761   -5.6844   -8.4239 C   0  0  0  0  0  0  0  0  0  0  0  0
   58.2660   -5.2268   -9.8187 C   0  0  0  0  0  0  0  0  0  0  0  0
   57.0369   -4.5946  -10.2986 C   0  0  0  0  0  0  0  0  0  0  0  0
   56.7547   -4.0638  -11.5565 C   0  0  0  0  0  0  0  0  0  0  0  0
   55.4766   -3.6212  -11.4525 N   0  0  0  0  0  0  0  0  0  0  0  0
   55.0062   -3.8564  -10.2362 N   0  0  0  0  0  0  0  0  0  0  0  0
   55.9374   -4.4581   -9.4866 C   0  0  0  0  0  0  0  0  0  0  0  0
   55.9457   -4.9233   -8.1070 C   0  0  0  0  0  0  0  0  0  0  0  0
   54.8575   -4.7750   -7.3148 N   0  0  0  0  0  0  0  0  0  0  0  0
   57.6178   -3.9739  -12.7246 C   0  0  0  0  0  0  0  0  0  0  0  0
   58.8182   -3.2347  -12.6187 N   0  0  0  0  0  0  0  0  0  0  0  0
   57.3200   -4.5257  -13.7965 O   0  0  0  0  0  0  0  0  0  0  0  0
   58.8525   -2.1889  -12.7427 H   0  0  0  0  0  0  0  0  0  0  0  0
   59.7437   -3.6894  -12.4110 H   0  0  0  0  0  0  0  0  0  0  0  0
   53.7260   -5.0218   -5.2195 N   0  0  0  0  0  0  0  0  0  0  0  0
   53.6113   -4.1026   -4.7036 H   0  0  0  0  0  0  0  0  0  0  0  0
   52.7183   -6.0308   -5.0744 C   0  0  0  0  0  0  0  0  0  0  0  0
   51.3718   -5.4324   -4.7840 C   0  0  0  0  0  0  0  0  0  0  0  0
   50.6512   -5.2384   -6.0352 N   0  0  0  0  0  0  0  0  0  0  0  0
   49.5285   -3.0353   -6.2047 C   0  0  0  0  0  0  0  0  0  0  0  0
   50.7641   -3.8290   -6.4392 C   0  0  0  0  0  0  0  0  0  0  0  0
   51.1552   -6.0816   -7.1118 C   0  0  0  0  0  0  0  0  0  0  0  0
   50.0414   -7.1037   -7.4001 C   0  0  0  0  0  0  0  0  0  0  0  0
   53.7046   -3.5168   -9.8137 C   0  0  0  0  0  0  0  0  0  0  0  0
   52.6351   -3.2512   -9.4478 N   0  0  0  0  0  0  0  0  0  0  0  0
 24 25  1  0  0  0
 25 23  1  0  0  0
 23 26  1  0  0  0
 26 27  1  0  0  0
 23 22  1  0  0  0
 22 21  1  0  0  0
 21 19  1  0  0  0
 19  1  1  0  0  0
  1  2  2  0  0  0
  2  3  1  0  0  0
  3  4  2  0  0  0
  4  5  1  0  0  0
  5  6  1  0  0  0
  6  7  1  0  0  0
  7  8  1  0  0  0
  8  9  2  0  0  0
  9 10  1  0  0  0
 10 28  1  0  0  0
 28 29  3  0  0  0
 10 11  1  0  0  0
 11 12  1  0  0  0
 12 13  2  0  0  0
  8 14  1  0  0  0
 14 15  1  0  0  0
 14 16  2  0  0  0
 13  1  1  0  0  0
 12  4  1  0  0  0
 11  7  2  0  0  0
 19 20  1  0  0  0
 15 17  1  0  0  0
 15 18  1  0  0  0
M  END
> <minimizedAffinity>
-6.92195

> <CNNscore>
0.6673858166

> <CNNaffinity>
7.0847649574

> <CNN_VS>
4.7282714844

> <CNNaffinity_variance>
0.0752577037

$$$$
[H]c1nc(N([H])C([H])([H])C([H])([H])N(C([H])([H])C([H])([H])[H])C([H])([H])C([H])([H])[H])nc2c1C([H])([H])C([H])([H])c1c(C(=O)N([H])[H])nn(C#N)c1-2


 29 31  0  0  0  0  0  0  0  0999 V2000
   54.7120   -5.2737   -6.1660 C   0  0  0  0  0  0  0  0  0  0  0  0
   55.7835   -5.8406   -5.5978 N   0  0  0  0  0  0  0  0  0  0  0  0
   56.9621   -6.0193   -6.1925 C   0  0  0  0  0  0  0  0  0  0  0  0
   57.0638   -5.5637   -7.5327 C   0  0  0  0  0  0  0  0  0  0  0  0
   58.3386   -5.7294   -8.2258 C   0  0  0  0  0  0  0  0  0  0  0  0
   58.4612   -5.2677   -9.6138 C   0  0  0  0  0  0  0  0  0  0  0  0
   57.2809   -4.6410  -10.2092 C   0  0  0  0  0  0  0  0  0  0  0  0
   57.1190   -4.1081  -11.4874 C   0  0  0  0  0  0  0  0  0  0  0  0
   55.8343   -3.6730  -11.5069 N   0  0  0  0  0  0  0  0  0  0  0  0
   55.2494   -3.9144  -10.3426 N   0  0  0  0  0  0  0  0  0  0  0  0
   56.1069   -4.5130   -9.5076 C   0  0  0  0  0  0  0  0  0  0  0  0
   55.9840   -4.9823   -8.1348 C   0  0  0  0  0  0  0  0  0  0  0  0
   54.8231   -4.8425   -7.4517 N   0  0  0  0  0  0  0  0  0  0  0  0
   58.0909   -4.0098  -12.5659 C   0  0  0  0  0  0  0  0  0  0  0  0
   57.6819   -3.4320  -13.7895 N   0  0  0  0  0  0  0  0  0  0  0  0
   59.2549   -4.4211  -12.4309 O   0  0  0  0  0  0  0  0  0  0  0  0
   57.1837   -3.9822  -14.5375 H   0  0  0  0  0  0  0  0  0  0  0  0
   57.8536   -2.4202  -14.0204 H   0  0  0  0  0  0  0  0  0  0  0  0
   53.4950   -5.1019   -5.4767 N   0  0  0  0  0  0  0  0  0  0  0  0
   53.5147   -4.6324   -4.5262 H   0  0  0  0  0  0  0  0  0  0  0  0
   52.2382   -5.5374   -6.0109 C   0  0  0  0  0  0  0  0  0  0  0  0
   51.4421   -4.3894   -6.5622 C   0  0  0  0  0  0  0  0  0  0  0  0
   50.0797   -4.4589   -6.0510 N   0  0  0  0  0  0  0  0  0  0  0  0
   49.2600   -4.4157   -3.7124 C   0  0  0  0  0  0  0  0  0  0  0  0
   50.0962   -5.1056   -4.7304 C   0  0  0  0  0  0  0  0  0  0  0  0
   49.4568   -3.1470   -5.9282 C   0  0  0  0  0  0  0  0  0  0  0  0
   50.0758   -2.2834   -7.0415 C   0  0  0  0  0  0  0  0  0  0  0  0
   53.9110   -3.5834  -10.0476 C   0  0  0  0  0  0  0  0  0  0  0  0
   52.8147   -3.3068   -9.7831 N   0  0  0  0  0  0  0  0  0  0  0  0
 24 25  1  0  0  0
 25 23  1  0  0  0
 23 26  1  0  0  0
 26 27  1  0  0  0
 23 22  1  0  0  0
 22 21  1  0  0  0
 21 19  1  0  0  0
 19  1  1  0  0  0
  1  2  2  0  0  0
  2  3  1  0  0  0
  3  4  2  0  0  0
  4  5  1  0  0  0
  5  6  1  0  0  0
  6  7  1  0  0  0
  7  8  1  0  0  0
  8  9  2  0  0  0
  9 10  1  0  0  0
 10 28  1  0  0  0
 28 29  3  0  0  0
 10 11  1  0  0  0
 11 12  1  0  0  0
 12 13  2  0  0  0
  8 14  1  0  0  0
 14 15  1  0  0  0
 14 16  2  0  0  0
 13  1  1  0  0  0
 12  4  1  0  0  0
 11  7  2  0  0  0
 19 20  1  0  0  0
 15 17  1  0  0  0
 15 18  1  0  0  0
M  END
> <minimizedAffinity>
-7.69502

> <CNNscore>
0.6207445264

> <CNNaffinity>
6.9370765686

> <CNN_VS>
4.3061523438

> <CNNaffinity_variance>
0.0707877427

$$$$
[H]c1nc(N([H])C([H])([H])C([H])([H])N(C([H])([H])C([H])([H])[H])C([H])([H])C([H])([H])[H])nc2c1C([H])([H])C([H])([H])c1c(C(=O)N([H])[H])nn(C#N)c1-2


 29 31  0  0  0  0  0  0  0  0999 V2000
   56.7060   -4.0259  -10.0369 C   0  0  0  0  0  0  0  0  0  0  0  0
   57.7501   -4.6788   -9.5119 N   0  0  0  0  0  0  0  0  0  0  0  0
   57.7352   -5.3486   -8.3603 C   0  0  0  0  0  0  0  0  0  0  0  0
   56.5037   -5.3558   -7.6550 C   0  0  0  0  0  0  0  0  0  0  0  0
   56.4338   -6.0837   -6.3908 C   0  0  0  0  0  0  0  0  0  0  0  0
   55.1695   -6.0988   -5.6453 C   0  0  0  0  0  0  0  0  0  0  0  0
   54.0395   -5.3885   -6.2447 C   0  0  0  0  0  0  0  0  0  0  0  0
   52.7363   -5.2496   -5.7692 C   0  0  0  0  0  0  0  0  0  0  0  0
   52.1177   -4.4913   -6.7085 N   0  0  0  0  0  0  0  0  0  0  0  0
   52.9628   -4.1859   -7.6824 N   0  0  0  0  0  0  0  0  0  0  0  0
   54.1654   -4.7199   -7.4380 C   0  0  0  0  0  0  0  0  0  0  0  0
   55.4237   -4.6963   -8.1699 C   0  0  0  0  0  0  0  0  0  0  0  0
   55.5318   -4.0401   -9.3496 N   0  0  0  0  0  0  0  0  0  0  0  0
   52.1426   -5.7965   -4.5584 C   0  0  0  0  0  0  0  0  0  0  0  0
   50.7360   -5.7592   -4.4227 N   0  0  0  0  0  0  0  0  0  0  0  0
   52.8415   -6.2857   -3.6559 O   0  0  0  0  0  0  0  0  0  0  0  0
   50.2232   -4.9094   -4.0686 H   0  0  0  0  0  0  0  0  0  0  0  0
   50.1241   -6.5790   -4.6674 H   0  0  0  0  0  0  0  0  0  0  0  0
   56.7836   -3.3458  -11.2686 N   0  0  0  0  0  0  0  0  0  0  0  0
   56.8490   -2.2875  -11.2580 H   0  0  0  0  0  0  0  0  0  0  0  0
   56.7763   -4.0292  -12.5285 C   0  0  0  0  0  0  0  0  0  0  0  0
   57.9679   -3.6620  -13.3657 C   0  0  0  0  0  0  0  0  0  0  0  0
   57.6767   -3.9401  -14.7658 N   0  0  0  0  0  0  0  0  0  0  0  0
   55.9150   -3.3468  -16.4051 C   0  0  0  0  0  0  0  0  0  0  0  0
   56.2408   -3.7333  -15.0065 C   0  0  0  0  0  0  0  0  0  0  0  0
   58.4365   -3.0943  -15.6776 C   0  0  0  0  0  0  0  0  0  0  0  0
   59.8750   -3.0754  -15.1312 C   0  0  0  0  0  0  0  0  0  0  0  0
   52.6239   -3.4040   -8.8057 C   0  0  0  0  0  0  0  0  0  0  0  0
   52.3438   -2.7417   -9.7174 N   0  0  0  0  0  0  0  0  0  0  0  0
 24 25  1  0  0  0
 25 23  1  0  0  0
 23 26  1  0  0  0
 26 27  1  0  0  0
 23 22  1  0  0  0
 22 21  1  0  0  0
 21 19  1  0  0  0
 19  1  1  0  0  0
  1  2  2  0  0  0
  2  3  1  0  0  0
  3  4  2  0  0  0
  4  5  1  0  0  0
  5  6  1  0  0  0
  6  7  1  0  0  0
  7  8  1  0  0  0
  8  9  2  0  0  0
  9 10  1  0  0  0
 10 28  1  0  0  0
 28 29  3  0  0  0
 10 11  1  0  0  0
 11 12  1  0  0  0
 12 13  2  0  0  0
  8 14  1  0  0  0
 14 15  1  0  0  0
 14 16  2  0  0  0
 13  1  1  0  0  0
 12  4  1  0  0  0
 11  7  2  0  0  0
 19 20  1  0  0  0
 15 17  1  0  0  0
 15 18  1  0  0  0
M  END
> <minimizedAffinity>
-7.24918

> <CNNscore>
0.6025414467

> <CNNaffinity>
6.5596299171

> <CNN_VS>
3.9524488449

> <CNNaffinity_variance>
0.1400363147

$$$$
[H]c1nc(N([H])C([H])([H])C([H])([H])N(C([H])([H])C([H])([H])[H])C([H])([H])C([H])([H])[H])nc2c1C([H])([H])C([H])([H])c1c(C(=O)N([H])[H])nn(C#N)c1-2


 29 31  0  0  0  0  0  0  0  0999 V2000
   55.6045   -5.1864   -7.9395 C   0  0  0  0  0  0  0  0  0  0  0  0
   56.0486   -6.0634   -7.0308 N   0  0  0  0  0  0  0  0  0  0  0  0
   55.3764   -6.4528   -5.9486 C   0  0  0  0  0  0  0  0  0  0  0  0
   54.0910   -5.8788   -5.7686 C   0  0  0  0  0  0  0  0  0  0  0  0
   53.3106   -6.2800   -4.6012 C   0  0  0  0  0  0  0  0  0  0  0  0
   51.9806   -5.6937   -4.3964 C   0  0  0  0  0  0  0  0  0  0  0  0
   51.5119   -4.7470   -5.4088 C   0  0  0  0  0  0  0  0  0  0  0  0
   50.3022   -4.0569   -5.4739 C   0  0  0  0  0  0  0  0  0  0  0  0
   50.4014   -3.3163   -6.6060 N   0  0  0  0  0  0  0  0  0  0  0  0
   51.5705   -3.5281   -7.1929 N   0  0  0  0  0  0  0  0  0  0  0  0
   52.2919   -4.4069   -6.4871 C   0  0  0  0  0  0  0  0  0  0  0  0
   53.6157   -4.9808   -6.6820 C   0  0  0  0  0  0  0  0  0  0  0  0
   54.3709   -4.6430   -7.7540 N   0  0  0  0  0  0  0  0  0  0  0  0
   49.1688   -4.1123   -4.5629 C   0  0  0  0  0  0  0  0  0  0  0  0
   48.2590   -3.0303   -4.5544 N   0  0  0  0  0  0  0  0  0  0  0  0
   48.9923   -5.0790   -3.8036 O   0  0  0  0  0  0  0  0  0  0  0  0
   48.4277   -2.1526   -3.9963 H   0  0  0  0  0  0  0  0  0  0  0  0
   47.3627   -3.0431   -5.1048 H   0  0  0  0  0  0  0  0  0  0  0  0
   56.3611   -4.8255   -9.0723 N   0  0  0  0  0  0  0  0  0  0  0  0
   57.4156   -4.9270   -9.0286 H   0  0  0  0  0  0  0  0  0  0  0  0
   55.7598   -4.3278  -10.2745 C   0  0  0  0  0  0  0  0  0  0  0  0
   56.7368   -3.5382  -11.0976 C   0  0  0  0  0  0  0  0  0  0  0  0
   57.4057   -4.4290  -12.0365 N   0  0  0  0  0  0  0  0  0  0  0  0
   56.1298   -4.8334  -14.1226 C   0  0  0  0  0  0  0  0  0  0  0  0
   57.1181   -3.9826  -13.4079 C   0  0  0  0  0  0  0  0  0  0  0  0
   58.8498   -4.4681  -11.8442 C   0  0  0  0  0  0  0  0  0  0  0  0
   59.4501   -3.6664  -13.0127 C   0  0  0  0  0  0  0  0  0  0  0  0
   51.9785   -2.9025   -8.3888 C   0  0  0  0  0  0  0  0  0  0  0  0
   52.3062   -2.3675   -9.3658 N   0  0  0  0  0  0  0  0  0  0  0  0
 24 25  1  0  0  0
 25 23  1  0  0  0
 23 26  1  0  0  0
 26 27  1  0  0  0
 23 22  1  0  0  0
 22 21  1  0  0  0
 21 19  1  0  0  0
 19  1  1  0  0  0
  1  2  2  0  0  0
  2  3  1  0  0  0
  3  4  2  0  0  0
  4  5  1  0  0  0
  5  6  1  0  0  0
  6  7  1  0  0  0
  7  8  1  0  0  0
  8  9  2  0  0  0
  9 10  1  0  0  0
 10 28  1  0  0  0
 28 29  3  0  0  0
 10 11  1  0  0  0
 11 12  1  0  0  0
 12 13  2  0  0  0
  8 14  1  0  0  0
 14 15  1  0  0  0
 14 16  2  0  0  0
 13  1  1  0  0  0
 12  4  1  0  0  0
 11  7  2  0  0  0
 19 20  1  0  0  0
 15 17  1  0  0  0
 15 18  1  0  0  0
M  END
> <minimizedAffinity>
-7.05945

> <CNNscore>
0.5803434849

> <CNNaffinity>
6.9699811935

> <CNN_VS>
4.0449833870

> <CNNaffinity_variance>
0.0906502977

$$$$
[H]c1nc(N([H])C([H])([H])C([H])([H])N(C([H])([H])C([H])([H])[H])C([H])([H])C([H])([H])[H])nc2c1C([H])([H])C([H])([H])c1c(C(=O)N([H])[H])nn(C#N)c1-2


 29 31  0  0  0  0  0  0  0  0999 V2000
   59.2346   -5.8477   -9.1851 C   0  0  0  0  0  0  0  0  0  0  0  0
   59.3247   -5.4396  -10.4569 N   0  0  0  0  0  0  0  0  0  0  0  0
   58.3603   -4.8159  -11.1321 C   0  0  0  0  0  0  0  0  0  0  0  0
   57.1535   -4.5767  -10.4248 C   0  0  0  0  0  0  0  0  0  0  0  0
   56.0685   -3.8883  -11.1189 C   0  0  0  0  0  0  0  0  0  0  0  0
   54.8113   -3.6358  -10.4045 C   0  0  0  0  0  0  0  0  0  0  0  0
   54.7409   -4.0802   -9.0122 C   0  0  0  0  0  0  0  0  0  0  0  0
   53.6897   -3.9622   -8.1040 C   0  0  0  0  0  0  0  0  0  0  0  0
   54.1581   -4.5485   -6.9740 N   0  0  0  0  0  0  0  0  0  0  0  0
   55.3924   -4.9919   -7.1638 N   0  0  0  0  0  0  0  0  0  0  0  0
   55.7950   -4.7243   -8.4117 C   0  0  0  0  0  0  0  0  0  0  0  0
   57.0368   -4.9842   -9.1259 C   0  0  0  0  0  0  0  0  0  0  0  0
   58.0715   -5.6129   -8.5193 N   0  0  0  0  0  0  0  0  0  0  0  0
   52.3868   -3.3415   -8.2903 C   0  0  0  0  0  0  0  0  0  0  0  0
   51.3182   -3.7597   -7.4648 N   0  0  0  0  0  0  0  0  0  0  0  0
   52.2016   -2.4657   -9.1510 O   0  0  0  0  0  0  0  0  0  0  0  0
   50.7367   -4.6120   -7.6789 H   0  0  0  0  0  0  0  0  0  0  0  0
   51.0445   -3.2416   -6.5912 H   0  0  0  0  0  0  0  0  0  0  0  0
   60.2983   -6.4920   -8.5225 N   0  0  0  0  0  0  0  0  0  0  0  0
   60.0782   -7.0853   -7.6718 H   0  0  0  0  0  0  0  0  0  0  0  0
   61.6600   -6.3740   -8.9543 C   0  0  0  0  0  0  0  0  0  0  0  0
   62.4854   -7.5489   -8.5139 C   0  0  0  0  0  0  0  0  0  0  0  0
   61.7418   -8.3153   -7.5229 N   0  0  0  0  0  0  0  0  0  0  0  0
   62.0214   -9.9894   -9.3290 C   0  0  0  0  0  0  0  0  0  0  0  0
   61.7966   -9.7407   -7.8802 C   0  0  0  0  0  0  0  0  0  0  0  0
   62.2629   -8.1451   -6.1725 C   0  0  0  0  0  0  0  0  0  0  0  0
   63.4953   -9.0623   -6.0803 C   0  0  0  0  0  0  0  0  0  0  0  0
   56.1541   -5.6532   -6.1787 C   0  0  0  0  0  0  0  0  0  0  0  0
   56.7686   -6.2165   -5.3705 N   0  0  0  0  0  0  0  0  0  0  0  0
 24 25  1  0  0  0
 25 23  1  0  0  0
 23 26  1  0  0  0
 26 27  1  0  0  0
 23 22  1  0  0  0
 22 21  1  0  0  0
 21 19  1  0  0  0
 19  1  1  0  0  0
  1  2  2  0  0  0
  2  3  1  0  0  0
  3  4  2  0  0  0
  4  5  1  0  0  0
  5  6  1  0  0  0
  6  7  1  0  0  0
  7  8  1  0  0  0
  8  9  2  0  0  0
  9 10  1  0  0  0
 10 28  1  0  0  0
 28 29  3  0  0  0
 10 11  1  0  0  0
 11 12  1  0  0  0
 12 13  2  0  0  0
  8 14  1  0  0  0
 14 15  1  0  0  0
 14 16  2  0  0  0
 13  1  1  0  0  0
 12  4  1  0  0  0
 11  7  2  0  0  0
 19 20  1  0  0  0
 15 17  1  0  0  0
 15 18  1  0  0  0
M  END
> <minimizedAffinity>
-6.46612

> <CNNscore>
0.5562144518

> <CNNaffinity>
6.0344414711

> <CNN_VS>
3.3564436436

> <CNNaffinity_variance>
0.0894562453

$$$$
[H]c1nc(N([H])C([H])([H])C([H])([H])N(C([H])([H])C([H])([H])[H])C([H])([H])C([H])([H])[H])nc2c1C([H])([H])C([H])([H])c1c(C(=O)N([H])[H])nn(C#N)c1-2


 29 31  0  0  0  0  0  0  0  0999 V2000
   53.7047   -5.3388   -6.7280 C   0  0  0  0  0  0  0  0  0  0  0  0
   53.6032   -4.5205   -7.7826 N   0  0  0  0  0  0  0  0  0  0  0  0
   52.5738   -3.7114   -8.0288 C   0  0  0  0  0  0  0  0  0  0  0  0
   51.5156   -3.7374   -7.0834 C   0  0  0  0  0  0  0  0  0  0  0  0
   50.3678   -2.8620   -7.3044 C   0  0  0  0  0  0  0  0  0  0  0  0
   49.2619   -2.8783   -6.3392 C   0  0  0  0  0  0  0  0  0  0  0  0
   49.4010   -3.7717   -5.1889 C   0  0  0  0  0  0  0  0  0  0  0  0
   48.5233   -3.9789   -4.1256 C   0  0  0  0  0  0  0  0  0  0  0  0
   49.1419   -4.9121   -3.3597 N   0  0  0  0  0  0  0  0  0  0  0  0
   50.3025   -5.2543   -3.8999 N   0  0  0  0  0  0  0  0  0  0  0  0
   50.5053   -4.5738   -5.0342 C   0  0  0  0  0  0  0  0  0  0  0  0
   51.5956   -4.5646   -5.9990 C   0  0  0  0  0  0  0  0  0  0  0  0
   52.6825   -5.3545   -5.8301 N   0  0  0  0  0  0  0  0  0  0  0  0
   47.2417   -3.3421   -3.8617 C   0  0  0  0  0  0  0  0  0  0  0  0
   46.2132   -4.1167   -3.2781 N   0  0  0  0  0  0  0  0  0  0  0  0
   47.0401   -2.1485   -4.1387 O   0  0  0  0  0  0  0  0  0  0  0  0
   45.5786   -4.7366   -3.8467 H   0  0  0  0  0  0  0  0  0  0  0  0
   46.0248   -4.1157   -2.2432 H   0  0  0  0  0  0  0  0  0  0  0  0
   54.8288   -6.1622   -6.5177 N   0  0  0  0  0  0  0  0  0  0  0  0
   55.7520   -5.8780   -6.9550 H   0  0  0  0  0  0  0  0  0  0  0  0
   54.7693   -7.3640   -5.7389 C   0  0  0  0  0  0  0  0  0  0  0  0
   55.2186   -7.1316   -4.3248 C   0  0  0  0  0  0  0  0  0  0  0  0
   56.4403   -6.3381   -4.3321 N   0  0  0  0  0  0  0  0  0  0  0  0
   54.9531   -5.1389   -2.7532 C   0  0  0  0  0  0  0  0  0  0  0  0
   56.3091   -5.2480   -3.3539 C   0  0  0  0  0  0  0  0  0  0  0  0
   57.6242   -7.1243   -4.0090 C   0  0  0  0  0  0  0  0  0  0  0  0
   57.2001   -8.0736   -2.8744 C   0  0  0  0  0  0  0  0  0  0  0  0
   51.1819   -6.2062   -3.3444 C   0  0  0  0  0  0  0  0  0  0  0  0
   51.8914   -7.0065   -2.8924 N   0  0  0  0  0  0  0  0  0  0  0  0
 24 25  1  0  0  0
 25 23  1  0  0  0
 23 26  1  0  0  0
 26 27  1  0  0  0
 23 22  1  0  0  0
 22 21  1  0  0  0
 21 19  1  0  0  0
 19  1  1  0  0  0
  1  2  2  0  0  0
  2  3  1  0  0  0
  3  4  2  0  0  0
  4  5  1  0  0  0
  5  6  1  0  0  0
  6  7  1  0  0  0
  7  8  1  0  0  0
  8  9  2  0  0  0
  9 10  1  0  0  0
 10 28  1  0  0  0
 28 29  3  0  0  0
 10 11  1  0  0  0
 11 12  1  0  0  0
 12 13  2  0  0  0
  8 14  1  0  0  0
 14 15  1  0  0  0
 14 16  2  0  0  0
 13  1  1  0  0  0
 12  4  1  0  0  0
 11  7  2  0  0  0
 19 20  1  0  0  0
 15 17  1  0  0  0
 15 18  1  0  0  0
M  END
> <minimizedAffinity>
-7.61485

> <CNNscore>
0.5405237675

> <CNNaffinity>
6.9953217506

> <CNN_VS>
3.7811377048

> <CNNaffinity_variance>
0.2061913013

$$$$
[H]OC1(c2c([H])c(C(=O)N([H])C3(C(F)(F)F)C([H])([H])C3([H])[H])c([H])c([H])c2Oc2c([H])c([H])nc3c([H])c(OC([H])([H])C([H])([H])C([H])([H])N(C([H])([H])[H])C([H])([H])[H])c(OC([H])([H])[H])c([H])c23)C([H])([H])C([H])([H])N(C([H])([H])[H])C([H])([H])C1([H])[H]


 46 50  0  0  0  0  0  0  0  0999 V2000
   56.0274   -5.4930   -6.8066 C   0  0  0  0  0  0  0  0  0  0  0  0
   55.0538   -5.1294   -7.7186 C   0  0  0  0  0  0  0  0  0  0  0  0
   53.6993   -5.1173   -7.4572 C   0  0  0  0  0  0  0  0  0  0  0  0
   53.2164   -5.4864   -6.2165 C   0  0  0  0  0  0  0  0  0  0  0  0
   54.1604   -5.8521   -5.3010 C   0  0  0  0  0  0  0  0  0  0  0  0
   55.5384   -5.8695   -5.5487 C   0  0  0  0  0  0  0  0  0  0  0  0
   56.4377   -6.2942   -4.4799 C   0  0  0  0  0  0  0  0  0  0  0  0
   57.6745   -6.6886   -5.0843 O   0  0  0  0  0  0  0  0  0  0  0  0
   55.9889   -7.4479   -3.6540 C   0  0  0  0  0  0  0  0  0  0  0  0
   57.2215   -8.1275   -3.0764 C   0  0  0  0  0  0  0  0  0  0  0  0
   58.1805   -7.1168   -2.7374 N   0  0  0  0  0  0  0  0  0  0  0  0
   58.9193   -7.5694   -1.5737 C   0  0  0  0  0  0  0  0  0  0  0  0
   57.5706   -5.8438   -2.3956 C   0  0  0  0  0  0  0  0  0  0  0  0
   56.8740   -5.1798   -3.5423 C   0  0  0  0  0  0  0  0  0  0  0  0
   57.5107   -7.6087   -5.4510 H   0  0  0  0  0  0  0  0  0  0  0  0
   51.7800   -5.4596   -5.9372 C   0  0  0  0  0  0  0  0  0  0  0  0
   51.0586   -6.4412   -6.2366 O   0  0  0  0  0  0  0  0  0  0  0  0
   51.2037   -4.3397   -5.3351 N   0  0  0  0  0  0  0  0  0  0  0  0
   51.8509   -3.5338   -5.0769 H   0  0  0  0  0  0  0  0  0  0  0  0
   49.8242   -4.1233   -4.9913 C   0  0  0  0  0  0  0  0  0  0  0  0
   49.4106   -4.0584   -3.5633 C   0  0  0  0  0  0  0  0  0  0  0  0
   48.9133   -5.1845   -4.4880 C   0  0  0  0  0  0  0  0  0  0  0  0
   49.1164   -3.1476   -5.9649 C   0  0  0  0  0  0  0  0  0  0  0  0
   49.9623   -2.0569   -6.0762 F   0  0  0  0  0  0  0  0  0  0  0  0
   48.9821   -3.6902   -7.2059 F   0  0  0  0  0  0  0  0  0  0  0  0
   47.8974   -2.7911   -5.4588 F   0  0  0  0  0  0  0  0  0  0  0  0
   57.3788   -5.4959   -7.0336 O   0  0  0  0  0  0  0  0  0  0  0  0
   55.8899   -4.0284  -10.6475 C   0  0  0  0  0  0  0  0  0  0  0  0
   56.3842   -4.5213   -9.4658 C   0  0  0  0  0  0  0  0  0  0  0  0
   57.6301   -5.0870   -9.3627 C   0  0  0  0  0  0  0  0  0  0  0  0
   58.1196   -5.5676   -8.1613 C   0  0  0  0  0  0  0  0  0  0  0  0
   59.3806   -6.0914   -8.2216 C   0  0  0  0  0  0  0  0  0  0  0  0
   60.1393   -6.1476   -9.3843 C   0  0  0  0  0  0  0  0  0  0  0  0
   59.6364   -5.6757  -10.5187 N   0  0  0  0  0  0  0  0  0  0  0  0
   58.4175   -5.1586  -10.5172 C   0  0  0  0  0  0  0  0  0  0  0  0
   57.9537   -4.6718  -11.7351 C   0  0  0  0  0  0  0  0  0  0  0  0
   56.7062   -4.1200  -11.7723 C   0  0  0  0  0  0  0  0  0  0  0  0
   54.0412   -2.8353   -9.6369 C   0  0  0  0  0  0  0  0  0  0  0  0
   54.6376   -3.4597  -10.7348 O   0  0  0  0  0  0  0  0  0  0  0  0
   56.1715   -3.6095  -12.9605 O   0  0  0  0  0  0  0  0  0  0  0  0
   56.9752   -3.6322  -14.1404 C   0  0  0  0  0  0  0  0  0  0  0  0
   56.1840   -4.3398  -15.2136 C   0  0  0  0  0  0  0  0  0  0  0  0
   56.6516   -3.8198  -16.5580 C   0  0  0  0  0  0  0  0  0  0  0  0
   57.8468   -4.4696  -17.0035 N   0  0  0  0  0  0  0  0  0  0  0  0
   57.5988   -5.1401  -18.2470 C   0  0  0  0  0  0  0  0  0  0  0  0
   58.9931   -3.6003  -17.0359 C   0  0  0  0  0  0  0  0  0  0  0  0
 38 39  1  0  0  0
 39 28  1  0  0  0
 28 29  2  0  0  0
 29 30  1  0  0  0
 30 31  2  0  0  0
 31 27  1  0  0  0
 27  1  1  0  0  0
  1  2  2  0  0  0
  2  3  1  0  0  0
  3  4  2  0  0  0
  4  5  1  0  0  0
  5  6  2  0  0  0
  6  7  1  0  0  0
  7  8  1  0  0  0
  7  9  1  0  0  0
  9 10  1  0  0  0
 10 11  1  0  0  0
 11 12  1  0  0  0
 11 13  1  0  0  0
 13 14  1  0  0  0
  4 16  1  0  0  0
 16 17  2  0  0  0
 16 18  1  0  0  0
 18 20  1  0  0  0
 20 21  1  0  0  0
 21 22  1  0  0  0
 20 23  1  0  0  0
 23 24  1  0  0  0
 23 25  1  0  0  0
 23 26  1  0  0  0
 31 32  1  0  0  0
 32 33  2  0  0  0
 33 34  1  0  0  0
 34 35  2  0  0  0
 35 36  1  0  0  0
 36 37  2  0  0  0
 37 40  1  0  0  0
 40 41  1  0  0  0
 41 42  1  0  0  0
 42 43  1  0  0  0
 43 44  1  0  0  0
 44 45  1  0  0  0
 44 46  1  0  0  0
 37 28  1  0  0  0
 35 30  1  0  0  0
  6  1  1  0  0  0
 14  7  1  0  0  0
 22 20  1  0  0  0
  8 15  1  0  0  0
 18 19  1  0  0  0
M  END
> <minimizedAffinity>
-8.72733

> <CNNscore>
0.4100137055

> <CNNaffinity>
7.5952072144

> <CNN_VS>
3.1141390800

> <CNNaffinity_variance>
0.0280797593

$$$$
[H]OC1(c2c([H])c(C(=O)N([H])C3(C(F)(F)F)C([H])([H])C3([H])[H])c([H])c([H])c2Oc2c([H])c([H])nc3c([H])c(OC([H])([H])C([H])([H])C([H])([H])N(C([H])([H])[H])C([H])([H])[H])c(OC([H])([H])[H])c([H])c23)C([H])([H])C([H])([H])N(C([H])([H])[H])C([H])([H])C1([H])[H]


 46 50  0  0  0  0  0  0  0  0999 V2000
   56.2153   -4.5270   -9.7212 C   0  0  0  0  0  0  0  0  0  0  0  0
   56.6090   -4.9217   -8.4559 C   0  0  0  0  0  0  0  0  0  0  0  0
   57.8481   -5.4433   -8.1469 C   0  0  0  0  0  0  0  0  0  0  0  0
   58.8078   -5.6112   -9.1265 C   0  0  0  0  0  0  0  0  0  0  0  0
   58.4395   -5.2305  -10.3845 C   0  0  0  0  0  0  0  0  0  0  0  0
   57.1872   -4.6989  -10.7158 C   0  0  0  0  0  0  0  0  0  0  0  0
   56.9219   -4.3435  -12.1068 C   0  0  0  0  0  0  0  0  0  0  0  0
   55.9119   -3.3286  -12.1106 O   0  0  0  0  0  0  0  0  0  0  0  0
   56.4221   -5.4345  -12.9868 C   0  0  0  0  0  0  0  0  0  0  0  0
   55.6308   -4.8043  -14.1232 C   0  0  0  0  0  0  0  0  0  0  0  0
   56.2805   -3.5852  -14.5076 N   0  0  0  0  0  0  0  0  0  0  0  0
   56.0855   -3.4013  -15.9335 C   0  0  0  0  0  0  0  0  0  0  0  0
   57.7122   -3.6009  -14.2642 C   0  0  0  0  0  0  0  0  0  0  0  0
   58.0785   -3.6550  -12.8136 C   0  0  0  0  0  0  0  0  0  0  0  0
   55.0456   -3.8138  -11.9626 H   0  0  0  0  0  0  0  0  0  0  0  0
   60.1264   -6.1519   -8.7938 C   0  0  0  0  0  0  0  0  0  0  0  0
   60.9581   -5.4517   -8.1680 O   0  0  0  0  0  0  0  0  0  0  0  0
   60.4666   -7.4520   -9.1716 N   0  0  0  0  0  0  0  0  0  0  0  0
   59.7277   -8.0234   -9.6837 H   0  0  0  0  0  0  0  0  0  0  0  0
   61.7027   -8.1513   -8.9455 C   0  0  0  0  0  0  0  0  0  0  0  0
   61.6890   -9.5458   -8.4262 C   0  0  0  0  0  0  0  0  0  0  0  0
   62.2911   -8.3930   -7.6022 C   0  0  0  0  0  0  0  0  0  0  0  0
   62.7766   -7.8172  -10.0114 C   0  0  0  0  0  0  0  0  0  0  0  0
   62.1141   -7.8483  -11.2270 F   0  0  0  0  0  0  0  0  0  0  0  0
   63.2702   -6.5595   -9.8459 F   0  0  0  0  0  0  0  0  0  0  0  0
   63.7826   -8.7416   -9.9612 F   0  0  0  0  0  0  0  0  0  0  0  0
   54.9992   -3.9891  -10.0521 O   0  0  0  0  0  0  0  0  0  0  0  0
   53.8788   -6.2252   -6.7092 C   0  0  0  0  0  0  0  0  0  0  0  0
   54.2344   -5.4890   -7.8115 C   0  0  0  0  0  0  0  0  0  0  0  0
   53.5439   -4.3725   -8.2109 C   0  0  0  0  0  0  0  0  0  0  0  0
   53.9228   -3.6331   -9.3171 C   0  0  0  0  0  0  0  0  0  0  0  0
   53.1394   -2.5437   -9.5774 C   0  0  0  0  0  0  0  0  0  0  0  0
   52.0424   -2.1789   -8.8066 C   0  0  0  0  0  0  0  0  0  0  0  0
   51.7094   -2.9125   -7.7514 N   0  0  0  0  0  0  0  0  0  0  0  0
   52.4336   -3.9804   -7.4548 C   0  0  0  0  0  0  0  0  0  0  0  0
   52.0388   -4.6995   -6.3312 C   0  0  0  0  0  0  0  0  0  0  0  0
   52.7672   -5.8004   -5.9854 C   0  0  0  0  0  0  0  0  0  0  0  0
   55.6962   -7.2473   -5.4785 C   0  0  0  0  0  0  0  0  0  0  0  0
   54.5843   -7.3426   -6.3184 O   0  0  0  0  0  0  0  0  0  0  0  0
   52.4312   -6.5737   -4.8686 O   0  0  0  0  0  0  0  0  0  0  0  0
   51.3947   -6.1133   -4.0013 C   0  0  0  0  0  0  0  0  0  0  0  0
   51.7527   -6.5436   -2.5996 C   0  0  0  0  0  0  0  0  0  0  0  0
   53.2061   -6.9729   -2.5996 C   0  0  0  0  0  0  0  0  0  0  0  0
   54.0162   -6.1405   -1.7630 N   0  0  0  0  0  0  0  0  0  0  0  0
   54.7671   -5.2249   -2.5724 C   0  0  0  0  0  0  0  0  0  0  0  0
   53.2794   -5.5031   -0.7040 C   0  0  0  0  0  0  0  0  0  0  0  0
 38 39  1  0  0  0
 39 28  1  0  0  0
 28 29  2  0  0  0
 29 30  1  0  0  0
 30 31  2  0  0  0
 31 27  1  0  0  0
 27  1  1  0  0  0
  1  2  2  0  0  0
  2  3  1  0  0  0
  3  4  2  0  0  0
  4  5  1  0  0  0
  5  6  2  0  0  0
  6  7  1  0  0  0
  7  8  1  0  0  0
  7  9  1  0  0  0
  9 10  1  0  0  0
 10 11  1  0  0  0
 11 12  1  0  0  0
 11 13  1  0  0  0
 13 14  1  0  0  0
  4 16  1  0  0  0
 16 17  2  0  0  0
 16 18  1  0  0  0
 18 20  1  0  0  0
 20 21  1  0  0  0
 21 22  1  0  0  0
 20 23  1  0  0  0
 23 24  1  0  0  0
 23 25  1  0  0  0
 23 26  1  0  0  0
 31 32  1  0  0  0
 32 33  2  0  0  0
 33 34  1  0  0  0
 34 35  2  0  0  0
 35 36  1  0  0  0
 36 37  2  0  0  0
 37 40  1  0  0  0
 40 41  1  0  0  0
 41 42  1  0  0  0
 42 43  1  0  0  0
 43 44  1  0  0  0
 44 45  1  0  0  0
 44 46  1  0  0  0
 37 28  1  0  0  0
 35 30  1  0  0  0
  6  1  1  0  0  0
 14  7  1  0  0  0
 22 20  1  0  0  0
  8 15  1  0  0  0
 18 19  1  0  0  0
M  END
> <minimizedAffinity>
-8.67329

> <CNNscore>
0.2978764474

> <CNNaffinity>
7.1646718979

> <CNN_VS>
2.1341869831

> <CNNaffinity_variance>
0.3574697077

$$$$
[H]OC1(c2c([H])c(C(=O)N([H])C3(C(F)(F)F)C([H])([H])C3([H])[H])c([H])c([H])c2Oc2c([H])c([H])nc3c([H])c(OC([H])([H])C([H])([H])C([H])([H])N(C([H])([H])[H])C([H])([H])[H])c(OC([H])([H])[H])c([H])c23)C([H])([H])C([H])([H])N(C([H])([H])[H])C([H])([H])C1([H])[H]


 46 50  0  0  0  0  0  0  0  0999 V2000
   56.4354   -5.1390   -8.0584 C   0  0  0  0  0  0  0  0  0  0  0  0
   55.7293   -4.5503   -9.0911 C   0  0  0  0  0  0  0  0  0  0  0  0
   54.4289   -4.1001   -8.9956 C   0  0  0  0  0  0  0  0  0  0  0  0
   53.7257   -4.2190   -7.8123 C   0  0  0  0  0  0  0  0  0  0  0  0
   54.4028   -4.8002   -6.7796 C   0  0  0  0  0  0  0  0  0  0  0  0
   55.7224   -5.2618   -6.8585 C   0  0  0  0  0  0  0  0  0  0  0  0
   56.3227   -5.8751   -5.6774 C   0  0  0  0  0  0  0  0  0  0  0  0
   57.6807   -6.1966   -5.9977 O   0  0  0  0  0  0  0  0  0  0  0  0
   55.6971   -7.1358   -5.1936 C   0  0  0  0  0  0  0  0  0  0  0  0
   56.7509   -7.9293   -4.4355 C   0  0  0  0  0  0  0  0  0  0  0  0
   57.5707   -7.0101   -3.7013 N   0  0  0  0  0  0  0  0  0  0  0  0
   57.9919   -7.6623   -2.4757 C   0  0  0  0  0  0  0  0  0  0  0  0
   56.8696   -5.7946   -3.3269 C   0  0  0  0  0  0  0  0  0  0  0  0
   56.4809   -4.9375   -4.4911 C   0  0  0  0  0  0  0  0  0  0  0  0
   57.6344   -7.0412   -6.5385 H   0  0  0  0  0  0  0  0  0  0  0  0
   52.3507   -3.7281   -7.7094 C   0  0  0  0  0  0  0  0  0  0  0  0
   51.8363   -3.0837   -8.6547 O   0  0  0  0  0  0  0  0  0  0  0  0
   51.6028   -3.9749   -6.5568 N   0  0  0  0  0  0  0  0  0  0  0  0
   52.0659   -4.5427   -5.7835 H   0  0  0  0  0  0  0  0  0  0  0  0
   50.2529   -3.5724   -6.2670 C   0  0  0  0  0  0  0  0  0  0  0  0
   49.2543   -3.4589   -7.3644 C   0  0  0  0  0  0  0  0  0  0  0  0
   49.7027   -2.2236   -6.5623 C   0  0  0  0  0  0  0  0  0  0  0  0
   49.7420   -4.1385   -4.9182 C   0  0  0  0  0  0  0  0  0  0  0  0
   50.8794   -4.4311   -4.1847 F   0  0  0  0  0  0  0  0  0  0  0  0
   49.0338   -3.2076   -4.2220 F   0  0  0  0  0  0  0  0  0  0  0  0
   48.9845   -5.2545   -5.1412 F   0  0  0  0  0  0  0  0  0  0  0  0
   57.7323   -5.5773   -8.1203 O   0  0  0  0  0  0  0  0  0  0  0  0
   61.4754   -7.3295   -7.5290 C   0  0  0  0  0  0  0  0  0  0  0  0
   60.2508   -6.7434   -7.7296 C   0  0  0  0  0  0  0  0  0  0  0  0
   59.9003   -6.1467   -8.9145 C   0  0  0  0  0  0  0  0  0  0  0  0
   58.6567   -5.5716   -9.1059 C   0  0  0  0  0  0  0  0  0  0  0  0
   58.4580   -5.0282  -10.3441 C   0  0  0  0  0  0  0  0  0  0  0  0
   59.4109   -5.0400  -11.3552 C   0  0  0  0  0  0  0  0  0  0  0  0
   60.5934   -5.6020  -11.1351 N   0  0  0  0  0  0  0  0  0  0  0  0
   60.8397   -6.1420   -9.9516 C   0  0  0  0  0  0  0  0  0  0  0  0
   62.0928   -6.7240   -9.7892 C   0  0  0  0  0  0  0  0  0  0  0  0
   62.3808   -7.3021   -8.5871 C   0  0  0  0  0  0  0  0  0  0  0  0
   62.5905   -7.2680   -5.3807 C   0  0  0  0  0  0  0  0  0  0  0  0
   61.8119   -7.9280   -6.3341 O   0  0  0  0  0  0  0  0  0  0  0  0
   63.6200   -7.9070   -8.3489 O   0  0  0  0  0  0  0  0  0  0  0  0
   63.7187   -9.3285   -8.4391 C   0  0  0  0  0  0  0  0  0  0  0  0
   63.5777   -9.7007   -9.8951 C   0  0  0  0  0  0  0  0  0  0  0  0
   64.7860  -10.5282  -10.2846 C   0  0  0  0  0  0  0  0  0  0  0  0
   64.4375  -11.6304  -11.1290 N   0  0  0  0  0  0  0  0  0  0  0  0
   63.0162  -11.6650  -11.3183 C   0  0  0  0  0  0  0  0  0  0  0  0
   65.1841  -11.6681  -12.3586 C   0  0  0  0  0  0  0  0  0  0  0  0
 38 39  1  0  0  0
 39 28  1  0  0  0
 28 29  2  0  0  0
 29 30  1  0  0  0
 30 31  2  0  0  0
 31 27  1  0  0  0
 27  1  1  0  0  0
  1  2  2  0  0  0
  2  3  1  0  0  0
  3  4  2  0  0  0
  4  5  1  0  0  0
  5  6  2  0  0  0
  6  7  1  0  0  0
  7  8  1  0  0  0
  7  9  1  0  0  0
  9 10  1  0  0  0
 10 11  1  0  0  0
 11 12  1  0  0  0
 11 13  1  0  0  0
 13 14  1  0  0  0
  4 16  1  0  0  0
 16 17  2  0  0  0
 16 18  1  0  0  0
 18 20  1  0  0  0
 20 21  1  0  0  0
 21 22  1  0  0  0
 20 23  1  0  0  0
 23 24  1  0  0  0
 23 25  1  0  0  0
 23 26  1  0  0  0
 31 32  1  0  0  0
 32 33  2  0  0  0
 33 34  1  0  0  0
 34 35  2  0  0  0
 35 36  1  0  0  0
 36 37  2  0  0  0
 37 40  1  0  0  0
 40 41  1  0  0  0
 41 42  1  0  0  0
 42 43  1  0  0  0
 43 44  1  0  0  0
 44 45  1  0  0  0
 44 46  1  0  0  0
 37 28  1  0  0  0
 35 30  1  0  0  0
  6  1  1  0  0  0
 14  7  1  0  0  0
 22 20  1  0  0  0
  8 15  1  0  0  0
 18 19  1  0  0  0
M  END
> <minimizedAffinity>
-6.19826

> <CNNscore>
0.2928354740

> <CNNaffinity>
7.0030670166

> <CNN_VS>
2.0507464409

> <CNNaffinity_variance>
0.2124715745

$$$$
[H]OC1(c2c([H])c(C(=O)N([H])C3(C(F)(F)F)C([H])([H])C3([H])[H])c([H])c([H])c2Oc2c([H])c([H])nc3c([H])c(OC([H])([H])C([H])([H])C([H])([H])N(C([H])([H])[H])C([H])([H])[H])c(OC([H])([H])[H])c([H])c23)C([H])([H])C([H])([H])N(C([H])([H])[H])C([H])([H])C1([H])[H]


 46 50  0  0  0  0  0  0  0  0999 V2000
   56.6641   -4.3326   -9.6794 C   0  0  0  0  0  0  0  0  0  0  0  0
   57.1308   -4.7666   -8.4524 C   0  0  0  0  0  0  0  0  0  0  0  0
   58.2928   -5.4861   -8.2649 C   0  0  0  0  0  0  0  0  0  0  0  0
   59.0903   -5.8317   -9.3388 C   0  0  0  0  0  0  0  0  0  0  0  0
   58.6469   -5.4157  -10.5608 C   0  0  0  0  0  0  0  0  0  0  0  0
   57.4711   -4.6845  -10.7694 C   0  0  0  0  0  0  0  0  0  0  0  0
   57.1089   -4.3133  -12.1341 C   0  0  0  0  0  0  0  0  0  0  0  0
   56.1510   -3.2519  -12.0557 O   0  0  0  0  0  0  0  0  0  0  0  0
   56.4872   -5.3772  -12.9686 C   0  0  0  0  0  0  0  0  0  0  0  0
   55.6353   -4.7072  -14.0364 C   0  0  0  0  0  0  0  0  0  0  0  0
   56.3078   -3.5191  -14.4746 N   0  0  0  0  0  0  0  0  0  0  0  0
   56.0046   -3.3224  -15.8797 C   0  0  0  0  0  0  0  0  0  0  0  0
   57.7524   -3.6029  -14.3503 C   0  0  0  0  0  0  0  0  0  0  0  0
   58.2343   -3.6781  -12.9350 C   0  0  0  0  0  0  0  0  0  0  0  0
   55.2780   -3.6961  -11.8360 H   0  0  0  0  0  0  0  0  0  0  0  0
   60.3297   -6.5831   -9.1359 C   0  0  0  0  0  0  0  0  0  0  0  0
   60.9958   -6.9832  -10.1208 O   0  0  0  0  0  0  0  0  0  0  0  0
   60.7785   -6.8591   -7.8432 N   0  0  0  0  0  0  0  0  0  0  0  0
   60.1975   -6.4860   -7.0320 H   0  0  0  0  0  0  0  0  0  0  0  0
   61.9555   -7.5824   -7.4437 C   0  0  0  0  0  0  0  0  0  0  0  0
   62.0672   -9.0403   -7.7198 C   0  0  0  0  0  0  0  0  0  0  0  0
   62.0139   -8.5028   -6.2781 C   0  0  0  0  0  0  0  0  0  0  0  0
   63.2490   -6.7440   -7.6020 C   0  0  0  0  0  0  0  0  0  0  0  0
   63.8011   -6.6720   -6.3342 F   0  0  0  0  0  0  0  0  0  0  0  0
   64.1523   -7.3666   -8.4076 F   0  0  0  0  0  0  0  0  0  0  0  0
   62.9408   -5.5043   -8.0892 F   0  0  0  0  0  0  0  0  0  0  0  0
   55.5248   -3.6014   -9.8919 O   0  0  0  0  0  0  0  0  0  0  0  0
   54.7872   -6.0212   -6.5706 C   0  0  0  0  0  0  0  0  0  0  0  0
   55.0173   -5.2278   -7.6665 C   0  0  0  0  0  0  0  0  0  0  0  0
   54.1017   -4.3144   -8.1251 C   0  0  0  0  0  0  0  0  0  0  0  0
   54.3538   -3.5122   -9.2237 C   0  0  0  0  0  0  0  0  0  0  0  0
   53.3467   -2.6468   -9.5479 C   0  0  0  0  0  0  0  0  0  0  0  0
   52.1516   -2.5538   -8.8453 C   0  0  0  0  0  0  0  0  0  0  0  0
   51.9456   -3.3396   -7.7953 N   0  0  0  0  0  0  0  0  0  0  0  0
   52.8880   -4.1983   -7.4384 C   0  0  0  0  0  0  0  0  0  0  0  0
   52.6146   -4.9845   -6.3237 C   0  0  0  0  0  0  0  0  0  0  0  0
   53.5662   -5.8739   -5.9169 C   0  0  0  0  0  0  0  0  0  0  0  0
   56.6373   -6.6028   -5.1209 C   0  0  0  0  0  0  0  0  0  0  0  0
   55.7181   -6.9320   -6.1198 O   0  0  0  0  0  0  0  0  0  0  0  0
   53.3633   -6.6986   -4.8047 O   0  0  0  0  0  0  0  0  0  0  0  0
   52.4710   -6.2614   -3.7795 C   0  0  0  0  0  0  0  0  0  0  0  0
   52.9716   -6.8261   -2.4723 C   0  0  0  0  0  0  0  0  0  0  0  0
   51.7680   -7.2545   -1.6572 C   0  0  0  0  0  0  0  0  0  0  0  0
   52.0431   -8.4033   -0.8487 N   0  0  0  0  0  0  0  0  0  0  0  0
   53.3620   -8.3008   -0.2942 C   0  0  0  0  0  0  0  0  0  0  0  0
   51.0245   -8.6705    0.1320 C   0  0  0  0  0  0  0  0  0  0  0  0
 38 39  1  0  0  0
 39 28  1  0  0  0
 28 29  2  0  0  0
 29 30  1  0  0  0
 30 31  2  0  0  0
 31 27  1  0  0  0
 27  1  1  0  0  0
  1  2  2  0  0  0
  2  3  1  0  0  0
  3  4  2  0  0  0
  4  5  1  0  0  0
  5  6  2  0  0  0
  6  7  1  0  0  0
  7  8  1  0  0  0
  7  9  1  0  0  0
  9 10  1  0  0  0
 10 11  1  0  0  0
 11 12  1  0  0  0
 11 13  1  0  0  0
 13 14  1  0  0  0
  4 16  1  0  0  0
 16 17  2  0  0  0
 16 18  1  0  0  0
 18 20  1  0  0  0
 20 21  1  0  0  0
 21 22  1  0  0  0
 20 23  1  0  0  0
 23 24  1  0  0  0
 23 25  1  0  0  0
 23 26  1  0  0  0
 31 32  1  0  0  0
 32 33  2  0  0  0
 33 34  1  0  0  0
 34 35  2  0  0  0
 35 36  1  0  0  0
 36 37  2  0  0  0
 37 40  1  0  0  0
 40 41  1  0  0  0
 41 42  1  0  0  0
 42 43  1  0  0  0
 43 44  1  0  0  0
 44 45  1  0  0  0
 44 46  1  0  0  0
 37 28  1  0  0  0
 35 30  1  0  0  0
  6  1  1  0  0  0
 14  7  1  0  0  0
 22 20  1  0  0  0
  8 15  1  0  0  0
 18 19  1  0  0  0
M  END
> <minimizedAffinity>
-8.77173

> <CNNscore>
0.2787760198

> <CNNaffinity>
7.2009420395

> <CNN_VS>
2.0074498653

> <CNNaffinity_variance>
0.1487911493

$$$$
[H]OC1(c2c([H])c(C(=O)N([H])C3(C(F)(F)F)C([H])([H])C3([H])[H])c([H])c([H])c2Oc2c([H])c([H])nc3c([H])c(OC([H])([H])C([H])([H])C([H])([H])N(C([H])([H])[H])C([H])([H])[H])c(OC([H])([H])[H])c([H])c23)C([H])([H])C([H])([H])N(C([H])([H])[H])C([H])([H])C1([H])[H]


 46 50  0  0  0  0  0  0  0  0999 V2000
   57.3468   -4.6767   -9.4126 C   0  0  0  0  0  0  0  0  0  0  0  0
   56.2887   -4.0264  -10.0204 C   0  0  0  0  0  0  0  0  0  0  0  0
   56.1190   -3.9093  -11.3843 C   0  0  0  0  0  0  0  0  0  0  0  0
   57.0374   -4.4562  -12.2596 C   0  0  0  0  0  0  0  0  0  0  0  0
   58.0923   -5.1008  -11.6811 C   0  0  0  0  0  0  0  0  0  0  0  0
   58.2799   -5.2299  -10.2995 C   0  0  0  0  0  0  0  0  0  0  0  0
   59.4619   -5.9368   -9.8153 C   0  0  0  0  0  0  0  0  0  0  0  0
   59.1521   -7.3345   -9.7904 O   0  0  0  0  0  0  0  0  0  0  0  0
   59.9300   -5.5875   -8.4465 C   0  0  0  0  0  0  0  0  0  0  0  0
   60.6919   -6.7790   -7.8858 C   0  0  0  0  0  0  0  0  0  0  0  0
   61.4410   -7.3808   -8.9501 N   0  0  0  0  0  0  0  0  0  0  0  0
   62.6655   -7.9206   -8.3896 C   0  0  0  0  0  0  0  0  0  0  0  0
   61.8181   -6.4363   -9.9868 C   0  0  0  0  0  0  0  0  0  0  0  0
   60.6568   -5.8846  -10.7538 C   0  0  0  0  0  0  0  0  0  0  0  0
   58.6044   -7.4716   -8.9602 H   0  0  0  0  0  0  0  0  0  0  0  0
   56.8481   -4.3425  -13.7064 C   0  0  0  0  0  0  0  0  0  0  0  0
   55.9701   -5.0262  -14.2855 O   0  0  0  0  0  0  0  0  0  0  0  0
   57.6448   -3.4712  -14.4514 N   0  0  0  0  0  0  0  0  0  0  0  0
   58.3659   -2.8924  -13.9225 H   0  0  0  0  0  0  0  0  0  0  0  0
   57.6158   -3.2283  -15.8684 C   0  0  0  0  0  0  0  0  0  0  0  0
   56.3373   -2.8686  -16.5397 C   0  0  0  0  0  0  0  0  0  0  0  0
   57.0689   -4.1829  -16.8678 C   0  0  0  0  0  0  0  0  0  0  0  0
   58.8920   -2.5088  -16.3729 C   0  0  0  0  0  0  0  0  0  0  0  0
   59.2901   -3.2076  -17.5002 F   0  0  0  0  0  0  0  0  0  0  0  0
   58.6261   -1.2301  -16.7562 F   0  0  0  0  0  0  0  0  0  0  0  0
   59.8522   -2.5318  -15.3999 F   0  0  0  0  0  0  0  0  0  0  0  0
   57.5297   -4.8240   -8.0625 O   0  0  0  0  0  0  0  0  0  0  0  0
   53.3566   -4.7083   -8.0158 C   0  0  0  0  0  0  0  0  0  0  0  0
   54.7285   -4.7450   -8.0180 C   0  0  0  0  0  0  0  0  0  0  0  0
   55.4523   -5.4446   -7.0856 C   0  0  0  0  0  0  0  0  0  0  0  0
   56.8351   -5.4827   -7.1090 C   0  0  0  0  0  0  0  0  0  0  0  0
   57.4073   -6.2314   -6.1189 C   0  0  0  0  0  0  0  0  0  0  0  0
   56.6827   -6.9162   -5.1512 C   0  0  0  0  0  0  0  0  0  0  0  0
   55.3565   -6.8570   -5.1610 N   0  0  0  0  0  0  0  0  0  0  0  0
   54.7504   -6.1439   -6.0975 C   0  0  0  0  0  0  0  0  0  0  0  0
   53.3597   -6.1318   -6.0588 C   0  0  0  0  0  0  0  0  0  0  0  0
   52.6975   -5.4177   -7.0146 C   0  0  0  0  0  0  0  0  0  0  0  0
   52.7361   -2.6135   -9.0594 C   0  0  0  0  0  0  0  0  0  0  0  0
   52.6432   -4.0037   -8.9612 O   0  0  0  0  0  0  0  0  0  0  0  0
   51.2996   -5.3582   -7.0404 O   0  0  0  0  0  0  0  0  0  0  0  0
   50.5599   -6.2142   -6.1695 C   0  0  0  0  0  0  0  0  0  0  0  0
   49.8975   -5.3411   -5.1316 C   0  0  0  0  0  0  0  0  0  0  0  0
   50.3338   -3.9108   -5.3772 C   0  0  0  0  0  0  0  0  0  0  0  0
   49.2905   -3.1183   -5.9539 N   0  0  0  0  0  0  0  0  0  0  0  0
   48.5155   -2.5067   -4.9135 C   0  0  0  0  0  0  0  0  0  0  0  0
   49.7602   -2.1877   -6.9459 C   0  0  0  0  0  0  0  0  0  0  0  0
 38 39  1  0  0  0
 39 28  1  0  0  0
 28 29  2  0  0  0
 29 30  1  0  0  0
 30 31  2  0  0  0
 31 27  1  0  0  0
 27  1  1  0  0  0
  1  2  2  0  0  0
  2  3  1  0  0  0
  3  4  2  0  0  0
  4  5  1  0  0  0
  5  6  2  0  0  0
  6  7  1  0  0  0
  7  8  1  0  0  0
  7  9  1  0  0  0
  9 10  1  0  0  0
 10 11  1  0  0  0
 11 12  1  0  0  0
 11 13  1  0  0  0
 13 14  1  0  0  0
  4 16  1  0  0  0
 16 17  2  0  0  0
 16 18  1  0  0  0
 18 20  1  0  0  0
 20 21  1  0  0  0
 21 22  1  0  0  0
 20 23  1  0  0  0
 23 24  1  0  0  0
 23 25  1  0  0  0
 23 26  1  0  0  0
 31 32  1  0  0  0
 32 33  2  0  0  0
 33 34  1  0  0  0
 34 35  2  0  0  0
 35 36  1  0  0  0
 36 37  2  0  0  0
 37 40  1  0  0  0
 40 41  1  0  0  0
 41 42  1  0  0  0
 42 43  1  0  0  0
 43 44  1  0  0  0
 44 45  1  0  0  0
 44 46  1  0  0  0
 37 28  1  0  0  0
 35 30  1  0  0  0
  6  1  1  0  0  0
 14  7  1  0  0  0
 22 20  1  0  0  0
  8 15  1  0  0  0
 18 19  1  0  0  0
M  END
> <minimizedAffinity>
-7.52746

> <CNNscore>
0.2679278851

> <CNNaffinity>
7.1178140640

> <CNN_VS>
1.9070608616

> <CNNaffinity_variance>
0.3050877750

$$$$
[H]OC1(c2c([H])c(C(=O)N([H])C3(C(F)(F)F)C([H])([H])C3([H])[H])c([H])c([H])c2Oc2c([H])c([H])nc3c([H])c(OC([H])([H])C([H])([H])C([H])([H])N(C([H])([H])[H])C([H])([H])[H])c(OC([H])([H])[H])c([H])c23)C([H])([H])C([H])([H])N(C([H])([H])[H])C([H])([H])C1([H])[H]


 46 50  0  0  0  0  0  0  0  0999 V2000
   56.7999   -4.5698  -10.4903 C   0  0  0  0  0  0  0  0  0  0  0  0
   56.0717   -3.9118  -11.4642 C   0  0  0  0  0  0  0  0  0  0  0  0
   56.5469   -3.5963  -12.7202 C   0  0  0  0  0  0  0  0  0  0  0  0
   57.8343   -3.9317  -13.0927 C   0  0  0  0  0  0  0  0  0  0  0  0
   58.5727   -4.5799  -12.1452 C   0  0  0  0  0  0  0  0  0  0  0  0
   58.1064   -4.9086  -10.8665 C   0  0  0  0  0  0  0  0  0  0  0  0
   59.0085   -5.5942   -9.9458 C   0  0  0  0  0  0  0  0  0  0  0  0
   58.6247   -6.9732   -9.9081 O   0  0  0  0  0  0  0  0  0  0  0  0
   59.0038   -5.1198   -8.5353 C   0  0  0  0  0  0  0  0  0  0  0  0
   59.4563   -6.2681   -7.6457 C   0  0  0  0  0  0  0  0  0  0  0  0
   60.4846   -6.9955   -8.3309 N   0  0  0  0  0  0  0  0  0  0  0  0
   61.4108   -7.5083   -7.3388 C   0  0  0  0  0  0  0  0  0  0  0  0
   61.2480   -6.1723   -9.2523 C   0  0  0  0  0  0  0  0  0  0  0  0
   60.4521   -5.6704  -10.4167 C   0  0  0  0  0  0  0  0  0  0  0  0
   57.8204   -7.0099   -9.3086 H   0  0  0  0  0  0  0  0  0  0  0  0
   58.3318   -3.6083  -14.4306 C   0  0  0  0  0  0  0  0  0  0  0  0
   59.5643   -3.6045  -14.6638 O   0  0  0  0  0  0  0  0  0  0  0  0
   57.4359   -3.3016  -15.4564 N   0  0  0  0  0  0  0  0  0  0  0  0
   56.3963   -3.3346  -15.2260 H   0  0  0  0  0  0  0  0  0  0  0  0
   57.7283   -2.9539  -16.8208 C   0  0  0  0  0  0  0  0  0  0  0  0
   58.5481   -1.7503  -17.1267 C   0  0  0  0  0  0  0  0  0  0  0  0
   57.0727   -1.8416  -17.5573 C   0  0  0  0  0  0  0  0  0  0  0  0
   57.9617   -4.1990  -17.7131 C   0  0  0  0  0  0  0  0  0  0  0  0
   59.3335   -4.3867  -17.7353 F   0  0  0  0  0  0  0  0  0  0  0  0
   57.4042   -5.3151  -17.1689 F   0  0  0  0  0  0  0  0  0  0  0  0
   57.4633   -3.9714  -18.9657 F   0  0  0  0  0  0  0  0  0  0  0  0
   56.3468   -4.9119   -9.2430 O   0  0  0  0  0  0  0  0  0  0  0  0
   55.6064   -6.7000   -5.5437 C   0  0  0  0  0  0  0  0  0  0  0  0
   55.8375   -6.1150   -6.7635 C   0  0  0  0  0  0  0  0  0  0  0  0
   54.9174   -5.3082   -7.3843 C   0  0  0  0  0  0  0  0  0  0  0  0
   55.1704   -4.7149   -8.6082 C   0  0  0  0  0  0  0  0  0  0  0  0
   54.1584   -3.9319   -9.0887 C   0  0  0  0  0  0  0  0  0  0  0  0
   52.9576   -3.7251   -8.4209 C   0  0  0  0  0  0  0  0  0  0  0  0
   52.7508   -4.3106   -7.2475 N   0  0  0  0  0  0  0  0  0  0  0  0
   53.6980   -5.0818   -6.7365 C   0  0  0  0  0  0  0  0  0  0  0  0
   53.4234   -5.6566   -5.4997 C   0  0  0  0  0  0  0  0  0  0  0  0
   54.3795   -6.4488   -4.9339 C   0  0  0  0  0  0  0  0  0  0  0  0
   57.5925   -6.9668   -4.1849 C   0  0  0  0  0  0  0  0  0  0  0  0
   56.5417   -7.5055   -4.9309 O   0  0  0  0  0  0  0  0  0  0  0  0
   54.1758   -7.0613   -3.6923 O   0  0  0  0  0  0  0  0  0  0  0  0
   53.4149   -6.3692   -2.7020 C   0  0  0  0  0  0  0  0  0  0  0  0
   52.1850   -7.1961   -2.4163 C   0  0  0  0  0  0  0  0  0  0  0  0
   51.9486   -7.1798   -0.9195 C   0  0  0  0  0  0  0  0  0  0  0  0
   52.1222   -8.4727   -0.3302 N   0  0  0  0  0  0  0  0  0  0  0  0
   51.7908   -9.4893   -1.2862 C   0  0  0  0  0  0  0  0  0  0  0  0
   53.4120   -8.6548    0.2813 C   0  0  0  0  0  0  0  0  0  0  0  0
 38 39  1  0  0  0
 39 28  1  0  0  0
 28 29  2  0  0  0
 29 30  1  0  0  0
 30 31  2  0  0  0
 31 27  1  0  0  0
 27  1  1  0  0  0
  1  2  2  0  0  0
  2  3  1  0  0  0
  3  4  2  0  0  0
  4  5  1  0  0  0
  5  6  2  0  0  0
  6  7  1  0  0  0
  7  8  1  0  0  0
  7  9  1  0  0  0
  9 10  1  0  0  0
 10 11  1  0  0  0
 11 12  1  0  0  0
 11 13  1  0  0  0
 13 14  1  0  0  0
  4 16  1  0  0  0
 16 17  2  0  0  0
 16 18  1  0  0  0
 18 20  1  0  0  0
 20 21  1  0  0  0
 21 22  1  0  0  0
 20 23  1  0  0  0
 23 24  1  0  0  0
 23 25  1  0  0  0
 23 26  1  0  0  0
 31 32  1  0  0  0
 32 33  2  0  0  0
 33 34  1  0  0  0
 34 35  2  0  0  0
 35 36  1  0  0  0
 36 37  2  0  0  0
 37 40  1  0  0  0
 40 41  1  0  0  0
 41 42  1  0  0  0
 42 43  1  0  0  0
 43 44  1  0  0  0
 44 45  1  0  0  0
 44 46  1  0  0  0
 37 28  1  0  0  0
 35 30  1  0  0  0
  6  1  1  0  0  0
 14  7  1  0  0  0
 22 20  1  0  0  0
  8 15  1  0  0  0
 18 19  1  0  0  0
M  END
> <minimizedAffinity>
-5.85314

> <CNNscore>
0.2410645336

> <CNNaffinity>
6.8026785851

> <CNN_VS>
1.6398845911

> <CNNaffinity_variance>
0.1094204932

$$$$
[H]OC1(c2c([H])c(C(=O)N([H])C3(C(F)(F)F)C([H])([H])C3([H])[H])c([H])c([H])c2Oc2c([H])c([H])nc3c([H])c(OC([H])([H])C([H])([H])C([H])([H])N(C([H])([H])[H])C([H])([H])[H])c(OC([H])([H])[H])c([H])c23)C([H])([H])C([H])([H])N(C([H])([H])[H])C([H])([H])C1([H])[H]


 46 50  0  0  0  0  0  0  0  0999 V2000
   58.1222   -4.6977  -10.7686 C   0  0  0  0  0  0  0  0  0  0  0  0
   57.6559   -3.8616  -11.7662 C   0  0  0  0  0  0  0  0  0  0  0  0
   58.3826   -3.4828  -12.8758 C   0  0  0  0  0  0  0  0  0  0  0  0
   59.6751   -3.9343  -13.0611 C   0  0  0  0  0  0  0  0  0  0  0  0
   60.1572   -4.7593  -12.0865 C   0  0  0  0  0  0  0  0  0  0  0  0
   59.4337   -5.1545  -10.9547 C   0  0  0  0  0  0  0  0  0  0  0  0
   60.0771   -6.0338   -9.9829 C   0  0  0  0  0  0  0  0  0  0  0  0
   59.3674   -7.2775   -9.9861 O   0  0  0  0  0  0  0  0  0  0  0  0
   60.0921   -5.5643   -8.5708 C   0  0  0  0  0  0  0  0  0  0  0  0
   60.1899   -6.7830   -7.6653 C   0  0  0  0  0  0  0  0  0  0  0  0
   61.0543   -7.7430   -8.2876 N   0  0  0  0  0  0  0  0  0  0  0  0
   61.7581   -8.4602   -7.2410 C   0  0  0  0  0  0  0  0  0  0  0  0
   62.0559   -7.1361   -9.1464 C   0  0  0  0  0  0  0  0  0  0  0  0
   61.4872   -6.4623  -10.3563 C   0  0  0  0  0  0  0  0  0  0  0  0
   58.5395   -7.1136   -9.4425 H   0  0  0  0  0  0  0  0  0  0  0  0
   60.4394   -3.5421  -14.2461 C   0  0  0  0  0  0  0  0  0  0  0  0
   59.9471   -2.7469  -15.0821 O   0  0  0  0  0  0  0  0  0  0  0  0
   61.7225   -4.0515  -14.4529 N   0  0  0  0  0  0  0  0  0  0  0  0
   62.1151   -4.7081  -13.7116 H   0  0  0  0  0  0  0  0  0  0  0  0
   62.6179   -3.7940  -15.5483 C   0  0  0  0  0  0  0  0  0  0  0  0
   64.0742   -3.6173  -15.2984 C   0  0  0  0  0  0  0  0  0  0  0  0
   63.2125   -2.4645  -15.8452 C   0  0  0  0  0  0  0  0  0  0  0  0
   62.2217   -4.5659  -16.8321 C   0  0  0  0  0  0  0  0  0  0  0  0
   63.4129   -4.8353  -17.4848 F   0  0  0  0  0  0  0  0  0  0  0  0
   61.6372   -5.7592  -16.5371 F   0  0  0  0  0  0  0  0  0  0  0  0
   61.3900   -3.7965  -17.5973 F   0  0  0  0  0  0  0  0  0  0  0  0
   57.4161   -5.1047   -9.6670 O   0  0  0  0  0  0  0  0  0  0  0  0
   56.3472   -6.1386   -5.7658 C   0  0  0  0  0  0  0  0  0  0  0  0
   56.6864   -5.8018   -7.0523 C   0  0  0  0  0  0  0  0  0  0  0  0
   55.8476   -5.0981   -7.8795 C   0  0  0  0  0  0  0  0  0  0  0  0
   56.2094   -4.7547   -9.1699 C   0  0  0  0  0  0  0  0  0  0  0  0
   55.2684   -4.0451   -9.8621 C   0  0  0  0  0  0  0  0  0  0  0  0
   54.0356   -3.6785   -9.3363 C   0  0  0  0  0  0  0  0  0  0  0  0
   53.7237   -4.0253   -8.0934 N   0  0  0  0  0  0  0  0  0  0  0  0
   54.5985   -4.7155   -7.3783 C   0  0  0  0  0  0  0  0  0  0  0  0
   54.2152   -5.0378   -6.0803 C   0  0  0  0  0  0  0  0  0  0  0  0
   55.0944   -5.7386   -5.3070 C   0  0  0  0  0  0  0  0  0  0  0  0
   57.5802   -6.3538   -3.6932 C   0  0  0  0  0  0  0  0  0  0  0  0
   57.2018   -6.8429   -4.9456 O   0  0  0  0  0  0  0  0  0  0  0  0
   54.7797   -6.0991   -3.9921 O   0  0  0  0  0  0  0  0  0  0  0  0
   53.7623   -7.0767   -3.7730 C   0  0  0  0  0  0  0  0  0  0  0  0
   52.9154   -6.5979   -2.6190 C   0  0  0  0  0  0  0  0  0  0  0  0
   53.0029   -7.6321   -1.5148 C   0  0  0  0  0  0  0  0  0  0  0  0
   53.3784   -7.0538   -0.2603 N   0  0  0  0  0  0  0  0  0  0  0  0
   54.4666   -7.7953    0.3084 C   0  0  0  0  0  0  0  0  0  0  0  0
   53.6215   -5.6373   -0.3327 C   0  0  0  0  0  0  0  0  0  0  0  0
 38 39  1  0  0  0
 39 28  1  0  0  0
 28 29  2  0  0  0
 29 30  1  0  0  0
 30 31  2  0  0  0
 31 27  1  0  0  0
 27  1  1  0  0  0
  1  2  2  0  0  0
  2  3  1  0  0  0
  3  4  2  0  0  0
  4  5  1  0  0  0
  5  6  2  0  0  0
  6  7  1  0  0  0
  7  8  1  0  0  0
  7  9  1  0  0  0
  9 10  1  0  0  0
 10 11  1  0  0  0
 11 12  1  0  0  0
 11 13  1  0  0  0
 13 14  1  0  0  0
  4 16  1  0  0  0
 16 17  2  0  0  0
 16 18  1  0  0  0
 18 20  1  0  0  0
 20 21  1  0  0  0
 21 22  1  0  0  0
 20 23  1  0  0  0
 23 24  1  0  0  0
 23 25  1  0  0  0
 23 26  1  0  0  0
 31 32  1  0  0  0
 32 33  2  0  0  0
 33 34  1  0  0  0
 34 35  2  0  0  0
 35 36  1  0  0  0
 36 37  2  0  0  0
 37 40  1  0  0  0
 40 41  1  0  0  0
 41 42  1  0  0  0
 42 43  1  0  0  0
 43 44  1  0  0  0
 44 45  1  0  0  0
 44 46  1  0  0  0
 37 28  1  0  0  0
 35 30  1  0  0  0
  6  1  1  0  0  0
 14  7  1  0  0  0
 22 20  1  0  0  0
  8 15  1  0  0  0
 18 19  1  0  0  0
M  END
> <minimizedAffinity>
-4.45493

> <CNNscore>
0.2293918729

> <CNNaffinity>
6.5480012894

> <CNN_VS>
1.5020582676

> <CNNaffinity_variance>
0.1255637854

$$$$
[H]OC1(c2c([H])c(C(=O)N([H])C3(C(F)(F)F)C([H])([H])C3([H])[H])c([H])c([H])c2Oc2c([H])c([H])nc3c([H])c(OC([H])([H])C([H])([H])C([H])([H])N(C([H])([H])[H])C([H])([H])[H])c(OC([H])([H])[H])c([H])c23)C([H])([H])C([H])([H])N(C([H])([H])[H])C([H])([H])C1([H])[H]


 46 50  0  0  0  0  0  0  0  0999 V2000
   56.2948   -4.5294   -9.7128 C   0  0  0  0  0  0  0  0  0  0  0  0
   56.6997   -4.9262   -8.4517 C   0  0  0  0  0  0  0  0  0  0  0  0
   57.9419   -5.4471   -8.1544 C   0  0  0  0  0  0  0  0  0  0  0  0
   58.8934   -5.6119   -9.1425 C   0  0  0  0  0  0  0  0  0  0  0  0
   58.5140   -5.2291  -10.3965 C   0  0  0  0  0  0  0  0  0  0  0  0
   57.2583   -4.6981  -10.7160 C   0  0  0  0  0  0  0  0  0  0  0  0
   56.9808   -4.3402  -12.1039 C   0  0  0  0  0  0  0  0  0  0  0  0
   55.9862   -3.3102  -12.0962 O   0  0  0  0  0  0  0  0  0  0  0  0
   56.4536   -5.4245  -12.9763 C   0  0  0  0  0  0  0  0  0  0  0  0
   55.6575   -4.7836  -14.1033 C   0  0  0  0  0  0  0  0  0  0  0  0
   56.3205   -3.5748  -14.4974 N   0  0  0  0  0  0  0  0  0  0  0  0
   56.1102   -3.3894  -15.9209 C   0  0  0  0  0  0  0  0  0  0  0  0
   57.7548   -3.6117  -14.2720 C   0  0  0  0  0  0  0  0  0  0  0  0
   58.1386   -3.6699  -12.8262 C   0  0  0  0  0  0  0  0  0  0  0  0
   55.1146   -3.7822  -11.9367 H   0  0  0  0  0  0  0  0  0  0  0  0
   60.2154   -6.1518   -8.8221 C   0  0  0  0  0  0  0  0  0  0  0  0
   61.0885   -5.4190   -8.2985 O   0  0  0  0  0  0  0  0  0  0  0  0
   60.5127   -7.4876   -9.0979 N   0  0  0  0  0  0  0  0  0  0  0  0
   59.7400   -8.0844   -9.5241 H   0  0  0  0  0  0  0  0  0  0  0  0
   61.7443   -8.1929   -8.8660 C   0  0  0  0  0  0  0  0  0  0  0  0
   63.0033   -7.7319   -9.5116 C   0  0  0  0  0  0  0  0  0  0  0  0
   62.3853   -9.0999   -9.8537 C   0  0  0  0  0  0  0  0  0  0  0  0
   61.8609   -8.7209   -7.4139 C   0  0  0  0  0  0  0  0  0  0  0  0
   63.2191   -8.7929   -7.1539 F   0  0  0  0  0  0  0  0  0  0  0  0
   61.3183   -7.8491   -6.5204 F   0  0  0  0  0  0  0  0  0  0  0  0
   61.2630   -9.9466   -7.3171 F   0  0  0  0  0  0  0  0  0  0  0  0
   55.0753   -3.9921  -10.0323 O   0  0  0  0  0  0  0  0  0  0  0  0
   54.0695   -6.2263   -6.6518 C   0  0  0  0  0  0  0  0  0  0  0  0
   54.3874   -5.4913   -7.7664 C   0  0  0  0  0  0  0  0  0  0  0  0
   53.6524   -4.4059   -8.1723 C   0  0  0  0  0  0  0  0  0  0  0  0
   53.9934   -3.6669   -9.2910 C   0  0  0  0  0  0  0  0  0  0  0  0
   53.1679   -2.6104   -9.5567 C   0  0  0  0  0  0  0  0  0  0  0  0
   52.0655   -2.2766   -8.7797 C   0  0  0  0  0  0  0  0  0  0  0  0
   51.7697   -3.0088   -7.7125 N   0  0  0  0  0  0  0  0  0  0  0  0
   52.5356   -4.0456   -7.4102 C   0  0  0  0  0  0  0  0  0  0  0  0
   52.1781   -4.7647   -6.2741 C   0  0  0  0  0  0  0  0  0  0  0  0
   52.9498   -5.8337   -5.9222 C   0  0  0  0  0  0  0  0  0  0  0  0
   55.8872   -7.1756   -5.3646 C   0  0  0  0  0  0  0  0  0  0  0  0
   54.8194   -7.3121   -6.2545 O   0  0  0  0  0  0  0  0  0  0  0  0
   52.6531   -6.6050   -4.7930 O   0  0  0  0  0  0  0  0  0  0  0  0
   52.3135   -5.9389   -3.5766 C   0  0  0  0  0  0  0  0  0  0  0  0
   53.3557   -6.3115   -2.5502 C   0  0  0  0  0  0  0  0  0  0  0  0
   54.3921   -5.2064   -2.5147 C   0  0  0  0  0  0  0  0  0  0  0  0
   55.5470   -5.5721   -1.7521 N   0  0  0  0  0  0  0  0  0  0  0  0
   55.6288   -7.0006   -1.6517 C   0  0  0  0  0  0  0  0  0  0  0  0
   56.7606   -4.9566   -2.2202 C   0  0  0  0  0  0  0  0  0  0  0  0
 38 39  1  0  0  0
 39 28  1  0  0  0
 28 29  2  0  0  0
 29 30  1  0  0  0
 30 31  2  0  0  0
 31 27  1  0  0  0
 27  1  1  0  0  0
  1  2  2  0  0  0
  2  3  1  0  0  0
  3  4  2  0  0  0
  4  5  1  0  0  0
  5  6  2  0  0  0
  6  7  1  0  0  0
  7  8  1  0  0  0
  7  9  1  0  0  0
  9 10  1  0  0  0
 10 11  1  0  0  0
 11 12  1  0  0  0
 11 13  1  0  0  0
 13 14  1  0  0  0
  4 16  1  0  0  0
 16 17  2  0  0  0
 16 18  1  0  0  0
 18 20  1  0  0  0
 20 21  1  0  0  0
 21 22  1  0  0  0
 20 23  1  0  0  0
 23 24  1  0  0  0
 23 25  1  0  0  0
 23 26  1  0  0  0
 31 32  1  0  0  0
 32 33  2  0  0  0
 33 34  1  0  0  0
 34 35  2  0  0  0
 35 36  1  0  0  0
 36 37  2  0  0  0
 37 40  1  0  0  0
 40 41  1  0  0  0
 41 42  1  0  0  0
 42 43  1  0  0  0
 43 44  1  0  0  0
 44 45  1  0  0  0
 44 46  1  0  0  0
 37 28  1  0  0  0
 35 30  1  0  0  0
  6  1  1  0  0  0
 14  7  1  0  0  0
 22 20  1  0  0  0
  8 15  1  0  0  0
 18 19  1  0  0  0
M  END
> <minimizedAffinity>
-8.70777

> <CNNscore>
0.2205038667

> <CNNaffinity>
6.9695267677

> <CNN_VS>
1.5368076563

> <CNNaffinity_variance>
0.5071827173

$$$$
[H]OC1(c2c([H])c(C(=O)N([H])C3(C(F)(F)F)C([H])([H])C3([H])[H])c([H])c([H])c2Oc2c([H])c([H])nc3c([H])c(OC([H])([H])C([H])([H])C([H])([H])N(C([H])([H])[H])C([H])([H])[H])c(OC([H])([H])[H])c([H])c23)C([H])([H])C([H])([H])N(C([H])([H])[H])C([H])([H])C1([H])[H]


 46 50  0  0  0  0  0  0  0  0999 V2000
   55.2493   -5.0818   -7.6865 C   0  0  0  0  0  0  0  0  0  0  0  0
   54.1818   -4.7054   -8.4805 C   0  0  0  0  0  0  0  0  0  0  0  0
   52.8673   -4.6724   -8.0636 C   0  0  0  0  0  0  0  0  0  0  0  0
   52.5264   -5.0316   -6.7739 C   0  0  0  0  0  0  0  0  0  0  0  0
   53.5648   -5.4097   -5.9728 C   0  0  0  0  0  0  0  0  0  0  0  0
   54.9043   -5.4483   -6.3789 C   0  0  0  0  0  0  0  0  0  0  0  0
   55.9155   -5.8844   -5.4202 C   0  0  0  0  0  0  0  0  0  0  0  0
   57.1659   -5.9627   -6.1134 O   0  0  0  0  0  0  0  0  0  0  0  0
   55.7023   -7.2156   -4.7900 C   0  0  0  0  0  0  0  0  0  0  0  0
   57.0569   -7.7638   -4.3667 C   0  0  0  0  0  0  0  0  0  0  0  0
   57.8573   -6.6756   -3.8861 N   0  0  0  0  0  0  0  0  0  0  0  0
   58.7197   -7.1811   -2.8346 C   0  0  0  0  0  0  0  0  0  0  0  0
   57.0695   -5.5953   -3.3190 C   0  0  0  0  0  0  0  0  0  0  0  0
   56.2156   -4.8799   -4.3191 C   0  0  0  0  0  0  0  0  0  0  0  0
   57.1331   -6.8252   -6.6261 H   0  0  0  0  0  0  0  0  0  0  0  0
   51.1327   -4.9826   -6.3297 C   0  0  0  0  0  0  0  0  0  0  0  0
   50.2564   -5.6597   -6.9191 O   0  0  0  0  0  0  0  0  0  0  0  0
   50.7701   -4.1809   -5.2459 N   0  0  0  0  0  0  0  0  0  0  0  0
   51.5446   -3.6361   -4.7579 H   0  0  0  0  0  0  0  0  0  0  0  0
   49.4649   -3.9958   -4.6715 C   0  0  0  0  0  0  0  0  0  0  0  0
   49.2403   -4.2594   -3.2243 C   0  0  0  0  0  0  0  0  0  0  0  0
   48.5482   -5.1075   -4.3069 C   0  0  0  0  0  0  0  0  0  0  0  0
   48.7146   -2.7852   -5.2820 C   0  0  0  0  0  0  0  0  0  0  0  0
   48.8626   -2.9109   -6.6531 F   0  0  0  0  0  0  0  0  0  0  0  0
   47.3823   -2.8333   -5.0076 F   0  0  0  0  0  0  0  0  0  0  0  0
   49.2614   -1.6203   -4.8202 F   0  0  0  0  0  0  0  0  0  0  0  0
   56.5650   -5.1056   -8.0689 O   0  0  0  0  0  0  0  0  0  0  0  0
   60.5198   -6.3394   -8.5868 C   0  0  0  0  0  0  0  0  0  0  0  0
   59.2223   -5.9230   -8.4237 C   0  0  0  0  0  0  0  0  0  0  0  0
   58.4865   -5.3748   -9.4440 C   0  0  0  0  0  0  0  0  0  0  0  0
   57.1748   -4.9719   -9.2672 C   0  0  0  0  0  0  0  0  0  0  0  0
   56.5758   -4.4558  -10.3821 C   0  0  0  0  0  0  0  0  0  0  0  0
   57.2081   -4.3356  -11.6135 C   0  0  0  0  0  0  0  0  0  0  0  0
   58.4676   -4.7339  -11.7455 N   0  0  0  0  0  0  0  0  0  0  0  0
   59.0965   -5.2400  -10.6960 C   0  0  0  0  0  0  0  0  0  0  0  0
   60.4102   -5.6484  -10.9034 C   0  0  0  0  0  0  0  0  0  0  0  0
   61.0888   -6.1866   -9.8489 C   0  0  0  0  0  0  0  0  0  0  0  0
   61.5498   -8.2541   -7.5213 C   0  0  0  0  0  0  0  0  0  0  0  0
   61.2452   -6.8914   -7.5532 O   0  0  0  0  0  0  0  0  0  0  0  0
   62.4128   -6.6198   -9.9805 O   0  0  0  0  0  0  0  0  0  0  0  0
   62.7868   -7.3368  -11.1572 C   0  0  0  0  0  0  0  0  0  0  0  0
   63.8744   -6.5460  -11.8429 C   0  0  0  0  0  0  0  0  0  0  0  0
   63.3030   -5.9841  -13.1291 C   0  0  0  0  0  0  0  0  0  0  0  0
   64.1035   -6.3176  -14.2679 N   0  0  0  0  0  0  0  0  0  0  0  0
   65.4673   -6.5023  -13.8640 C   0  0  0  0  0  0  0  0  0  0  0  0
   63.5765   -7.4137  -15.0371 C   0  0  0  0  0  0  0  0  0  0  0  0
 38 39  1  0  0  0
 39 28  1  0  0  0
 28 29  2  0  0  0
 29 30  1  0  0  0
 30 31  2  0  0  0
 31 27  1  0  0  0
 27  1  1  0  0  0
  1  2  2  0  0  0
  2  3  1  0  0  0
  3  4  2  0  0  0
  4  5  1  0  0  0
  5  6  2  0  0  0
  6  7  1  0  0  0
  7  8  1  0  0  0
  7  9  1  0  0  0
  9 10  1  0  0  0
 10 11  1  0  0  0
 11 12  1  0  0  0
 11 13  1  0  0  0
 13 14  1  0  0  0
  4 16  1  0  0  0
 16 17  2  0  0  0
 16 18  1  0  0  0
 18 20  1  0  0  0
 20 21  1  0  0  0
 21 22  1  0  0  0
 20 23  1  0  0  0
 23 24  1  0  0  0
 23 25  1  0  0  0
 23 26  1  0  0  0
 31 32  1  0  0  0
 32 33  2  0  0  0
 33 34  1  0  0  0
 34 35  2  0  0  0
 35 36  1  0  0  0
 36 37  2  0  0  0
 37 40  1  0  0  0
 40 41  1  0  0  0
 41 42  1  0  0  0
 42 43  1  0  0  0
 43 44  1  0  0  0
 44 45  1  0  0  0
 44 46  1  0  0  0
 37 28  1  0  0  0
 35 30  1  0  0  0
  6  1  1  0  0  0
 14  7  1  0  0  0
 22 20  1  0  0  0
  8 15  1  0  0  0
 18 19  1  0  0  0
M  END
> <minimizedAffinity>
-6.93289

> <CNNscore>
0.2130783945

> <CNNaffinity>
6.8644652367

> <CNN_VS>
1.4626692533

> <CNNaffinity_variance>
0.0683207810

$$$$
[H]c1nc(C([H])([H])[H])c([H])c([H])c1-c1c([H])c([H])c2nc(N([H])C(=O)C([H])([H])[H])n([C@@]3([H])O[C@@]([H])(OC([H])([H])[H])[C@@]([H])(OC([H])([H])[H])C3([H])[H])c2c1[H]


 30 33  0  0  0  0  0  0  0  0999 V2000
   54.7485   -4.6904   -7.6165 N   0  0  0  0  0  0  0  0  0  0  0  0
   53.6600   -4.1547   -8.2112 C   0  0  0  0  0  0  0  0  0  0  0  0
   53.9413   -3.8835   -9.5006 N   0  0  0  0  0  0  0  0  0  0  0  0
   55.2105   -4.2430   -9.7407 C   0  0  0  0  0  0  0  0  0  0  0  0
   55.9554   -4.1652  -10.8995 C   0  0  0  0  0  0  0  0  0  0  0  0
   57.2465   -4.5979  -10.9072 C   0  0  0  0  0  0  0  0  0  0  0  0
   57.7767   -5.1079   -9.7398 C   0  0  0  0  0  0  0  0  0  0  0  0
   57.0237   -5.1813   -8.5872 C   0  0  0  0  0  0  0  0  0  0  0  0
   55.7065   -4.7469   -8.5544 C   0  0  0  0  0  0  0  0  0  0  0  0
   59.1506   -5.5712   -9.7392 C   0  0  0  0  0  0  0  0  0  0  0  0
   59.6879   -5.9796   -8.5239 C   0  0  0  0  0  0  0  0  0  0  0  0
   60.9913   -6.4151   -8.5535 C   0  0  0  0  0  0  0  0  0  0  0  0
   61.6688   -6.4211   -9.7509 C   0  0  0  0  0  0  0  0  0  0  0  0
   63.0921   -6.8877   -9.8347 C   0  0  0  0  0  0  0  0  0  0  0  0
   61.1109   -6.0157  -10.9134 N   0  0  0  0  0  0  0  0  0  0  0  0
   59.8454   -5.5875  -10.9126 C   0  0  0  0  0  0  0  0  0  0  0  0
   53.8701   -5.8813   -4.4231 C   0  0  0  0  0  0  0  0  0  0  0  0
   53.6657   -5.1632   -5.5839 O   0  0  0  0  0  0  0  0  0  0  0  0
   54.8803   -5.1184   -6.2689 C   0  0  0  0  0  0  0  0  0  0  0  0
   55.3206   -6.5756   -6.1257 C   0  0  0  0  0  0  0  0  0  0  0  0
   55.1068   -6.7315   -4.6100 C   0  0  0  0  0  0  0  0  0  0  0  0
   51.5860   -5.9892   -4.5225 C   0  0  0  0  0  0  0  0  0  0  0  0
   52.7548   -6.6379   -4.0713 O   0  0  0  0  0  0  0  0  0  0  0  0
   54.9610   -8.0377   -4.2280 O   0  0  0  0  0  0  0  0  0  0  0  0
   55.7780   -8.2700   -3.1175 C   0  0  0  0  0  0  0  0  0  0  0  0
   52.3865   -3.8864   -7.6461 N   0  0  0  0  0  0  0  0  0  0  0  0
   51.6432   -2.7387   -7.9576 C   0  0  0  0  0  0  0  0  0  0  0  0
   50.3234   -2.5268   -7.3287 C   0  0  0  0  0  0  0  0  0  0  0  0
   52.0663   -1.8778   -8.7606 O   0  0  0  0  0  0  0  0  0  0  0  0
   52.0002   -4.5777   -6.9742 H   0  0  0  0  0  0  0  0  0  0  0  0
 22 23  1  0  0  0
 23 17  1  0  0  0
 17 18  1  0  0  0
 18 19  1  0  0  0
 19 20  1  0  0  0
 20 21  1  0  0  0
 21 24  1  0  0  0
 24 25  1  0  0  0
 19  1  1  0  0  0
  1  2  1  0  0  0
  2 26  1  0  0  0
 26 27  1  0  0  0
 27 28  1  0  0  0
 27 29  2  0  0  0
  2  3  2  0  0  0
  3  4  1  0  0  0
  4  5  2  0  0  0
  5  6  1  0  0  0
  6  7  2  0  0  0
  7  8  1  0  0  0
  8  9  2  0  0  0
  7 10  1  0  0  0
 10 11  2  0  0  0
 11 12  1  0  0  0
 12 13  2  0  0  0
 13 14  1  0  0  0
 13 15  1  0  0  0
 15 16  2  0  0  0
 21 17  1  0  0  0
  9  1  1  0  0  0
 16 10  1  0  0  0
  9  4  1  0  0  0
 26 30  1  0  0  0
M  END
> <minimizedAffinity>
-8.80105

> <CNNscore>
0.8293511271

> <CNNaffinity>
6.8399457932

> <CNN_VS>
5.6727166176

> <CNNaffinity_variance>
0.1870926917

$$$$
[H]c1nc(C([H])([H])[H])c([H])c([H])c1-c1c([H])c([H])c2nc(N([H])C(=O)C([H])([H])[H])n([C@@]3([H])O[C@@]([H])(OC([H])([H])[H])[C@@]([H])(OC([H])([H])[H])C3([H])[H])c2c1[H]


 30 33  0  0  0  0  0  0  0  0999 V2000
   54.4476   -4.4237   -7.5255 N   0  0  0  0  0  0  0  0  0  0  0  0
   53.3722   -3.8613   -8.1192 C   0  0  0  0  0  0  0  0  0  0  0  0
   53.6531   -3.6127   -9.4132 N   0  0  0  0  0  0  0  0  0  0  0  0
   54.9091   -4.0135   -9.6573 C   0  0  0  0  0  0  0  0  0  0  0  0
   55.6483   -3.9711  -10.8216 C   0  0  0  0  0  0  0  0  0  0  0  0
   56.9255   -4.4434  -10.8327 C   0  0  0  0  0  0  0  0  0  0  0  0
   57.4476   -4.9568   -9.6631 C   0  0  0  0  0  0  0  0  0  0  0  0
   56.7002   -4.9946   -8.5050 C   0  0  0  0  0  0  0  0  0  0  0  0
   55.3973   -4.5197   -8.4688 C   0  0  0  0  0  0  0  0  0  0  0  0
   58.8066   -5.4620   -9.6661 C   0  0  0  0  0  0  0  0  0  0  0  0
   59.3271   -5.9059   -8.4560 C   0  0  0  0  0  0  0  0  0  0  0  0
   60.6167   -6.3807   -8.4888 C   0  0  0  0  0  0  0  0  0  0  0  0
   61.2976   -6.3886   -9.6843 C   0  0  0  0  0  0  0  0  0  0  0  0
   62.7062   -6.8973   -9.7716 C   0  0  0  0  0  0  0  0  0  0  0  0
   60.7561   -5.9479  -10.8417 N   0  0  0  0  0  0  0  0  0  0  0  0
   59.5044   -5.4811  -10.8376 C   0  0  0  0  0  0  0  0  0  0  0  0
   54.8289   -6.5397   -4.7390 C   0  0  0  0  0  0  0  0  0  0  0  0
   54.3722   -6.2102   -5.9991 O   0  0  0  0  0  0  0  0  0  0  0  0
   54.5752   -4.8411   -6.1741 C   0  0  0  0  0  0  0  0  0  0  0  0
   55.9942   -4.7093   -5.6201 C   0  0  0  0  0  0  0  0  0  0  0  0
   55.7931   -5.4629   -4.2939 C   0  0  0  0  0  0  0  0  0  0  0  0
   54.8802   -8.5273   -3.6052 C   0  0  0  0  0  0  0  0  0  0  0  0
   55.3994   -7.8099   -4.7035 O   0  0  0  0  0  0  0  0  0  0  0  0
   56.9667   -5.9330   -3.7695 O   0  0  0  0  0  0  0  0  0  0  0  0
   57.0120   -5.6001   -2.4123 C   0  0  0  0  0  0  0  0  0  0  0  0
   52.1112   -3.5479   -7.5491 N   0  0  0  0  0  0  0  0  0  0  0  0
   51.1914   -4.5294   -7.1525 C   0  0  0  0  0  0  0  0  0  0  0  0
   49.8966   -4.1267   -6.5661 C   0  0  0  0  0  0  0  0  0  0  0  0
   51.4342   -5.7499   -7.2805 O   0  0  0  0  0  0  0  0  0  0  0  0
   51.8719   -2.5448   -7.4261 H   0  0  0  0  0  0  0  0  0  0  0  0
 22 23  1  0  0  0
 23 17  1  0  0  0
 17 18  1  0  0  0
 18 19  1  0  0  0
 19 20  1  0  0  0
 20 21  1  0  0  0
 21 24  1  0  0  0
 24 25  1  0  0  0
 19  1  1  0  0  0
  1  2  1  0  0  0
  2 26  1  0  0  0
 26 27  1  0  0  0
 27 28  1  0  0  0
 27 29  2  0  0  0
  2  3  2  0  0  0
  3  4  1  0  0  0
  4  5  2  0  0  0
  5  6  1  0  0  0
  6  7  2  0  0  0
  7  8  1  0  0  0
  8  9  2  0  0  0
  7 10  1  0  0  0
 10 11  2  0  0  0
 11 12  1  0  0  0
 12 13  2  0  0  0
 13 14  1  0  0  0
 13 15  1  0  0  0
 15 16  2  0  0  0
 21 17  1  0  0  0
  9  1  1  0  0  0
 16 10  1  0  0  0
  9  4  1  0  0  0
 26 30  1  0  0  0
M  END
> <minimizedAffinity>
-7.81124

> <CNNscore>
0.8186823726

> <CNNaffinity>
6.9060959816

> <CNN_VS>
5.6538991928

> <CNNaffinity_variance>
0.2003095895

$$$$
[H]c1nc(C([H])([H])[H])c([H])c([H])c1-c1c([H])c([H])c2nc(N([H])C(=O)C([H])([H])[H])n([C@@]3([H])O[C@@]([H])(OC([H])([H])[H])[C@@]([H])(OC([H])([H])[H])C3([H])[H])c2c1[H]


 30 33  0  0  0  0  0  0  0  0999 V2000
   55.8444   -5.0305   -7.5867 N   0  0  0  0  0  0  0  0  0  0  0  0
   54.9287   -4.2938   -8.2531 C   0  0  0  0  0  0  0  0  0  0  0  0
   55.3983   -3.9984   -9.4809 N   0  0  0  0  0  0  0  0  0  0  0  0
   56.6167   -4.5430   -9.6095 C   0  0  0  0  0  0  0  0  0  0  0  0
   57.4960   -4.5202  -10.6726 C   0  0  0  0  0  0  0  0  0  0  0  0
   58.6973   -5.1538  -10.5739 C   0  0  0  0  0  0  0  0  0  0  0  0
   59.0018   -5.8080   -9.3976 C   0  0  0  0  0  0  0  0  0  0  0  0
   58.1158   -5.8248   -8.3413 C   0  0  0  0  0  0  0  0  0  0  0  0
   56.8863   -5.1869   -8.4179 C   0  0  0  0  0  0  0  0  0  0  0  0
   60.2787   -6.4854   -9.2841 C   0  0  0  0  0  0  0  0  0  0  0  0
   60.4013   -7.7269   -9.8973 C   0  0  0  0  0  0  0  0  0  0  0  0
   61.6229   -8.3452   -9.7747 C   0  0  0  0  0  0  0  0  0  0  0  0
   62.6246   -7.7164   -9.0719 C   0  0  0  0  0  0  0  0  0  0  0  0
   63.9748   -8.3501   -8.9107 C   0  0  0  0  0  0  0  0  0  0  0  0
   62.4664   -6.5072   -8.4890 N   0  0  0  0  0  0  0  0  0  0  0  0
   61.2890   -5.8845   -8.5928 C   0  0  0  0  0  0  0  0  0  0  0  0
   56.7850   -6.5477   -4.5534 C   0  0  0  0  0  0  0  0  0  0  0  0
   56.8218   -6.3722   -5.9219 O   0  0  0  0  0  0  0  0  0  0  0  0
   55.7493   -5.5501   -6.2685 C   0  0  0  0  0  0  0  0  0  0  0  0
   55.8661   -4.4857   -5.1769 C   0  0  0  0  0  0  0  0  0  0  0  0
   55.9737   -5.4186   -3.9581 C   0  0  0  0  0  0  0  0  0  0  0  0
   58.3202   -7.9659   -3.6205 C   0  0  0  0  0  0  0  0  0  0  0  0
   58.0608   -6.6323   -4.0010 O   0  0  0  0  0  0  0  0  0  0  0  0
   56.5533   -4.8115   -2.8770 O   0  0  0  0  0  0  0  0  0  0  0  0
   55.9175   -5.2665   -1.7179 C   0  0  0  0  0  0  0  0  0  0  0  0
   53.6538   -3.8568   -7.8096 N   0  0  0  0  0  0  0  0  0  0  0  0
   52.7813   -3.1138   -8.6180 C   0  0  0  0  0  0  0  0  0  0  0  0
   51.4685   -2.6933   -8.0868 C   0  0  0  0  0  0  0  0  0  0  0  0
   53.0818   -2.7915   -9.7888 O   0  0  0  0  0  0  0  0  0  0  0  0
   53.3671   -4.1044   -6.8426 H   0  0  0  0  0  0  0  0  0  0  0  0
 22 23  1  0  0  0
 23 17  1  0  0  0
 17 18  1  0  0  0
 18 19  1  0  0  0
 19 20  1  0  0  0
 20 21  1  0  0  0
 21 24  1  0  0  0
 24 25  1  0  0  0
 19  1  1  0  0  0
  1  2  1  0  0  0
  2 26  1  0  0  0
 26 27  1  0  0  0
 27 28  1  0  0  0
 27 29  2  0  0  0
  2  3  2  0  0  0
  3  4  1  0  0  0
  4  5  2  0  0  0
  5  6  1  0  0  0
  6  7  2  0  0  0
  7  8  1  0  0  0
  8  9  2  0  0  0
  7 10  1  0  0  0
 10 11  2  0  0  0
 11 12  1  0  0  0
 12 13  2  0  0  0
 13 14  1  0  0  0
 13 15  1  0  0  0
 15 16  2  0  0  0
 21 17  1  0  0  0
  9  1  1  0  0  0
 16 10  1  0  0  0
  9  4  1  0  0  0
 26 30  1  0  0  0
M  END
> <minimizedAffinity>
-7.24323

> <CNNscore>
0.7448194623

> <CNNaffinity>
6.4042930603

> <CNN_VS>
4.7700419426

> <CNNaffinity_variance>
0.1514861286

$$$$
[H]c1nc(C([H])([H])[H])c([H])c([H])c1-c1c([H])c([H])c2nc(N([H])C(=O)C([H])([H])[H])n([C@@]3([H])O[C@@]([H])(OC([H])([H])[H])[C@@]([H])(OC([H])([H])[H])C3([H])[H])c2c1[H]


 30 33  0  0  0  0  0  0  0  0999 V2000
   52.6938   -5.0731   -6.3788 N   0  0  0  0  0  0  0  0  0  0  0  0
   51.5960   -4.3118   -6.5807 C   0  0  0  0  0  0  0  0  0  0  0  0
   51.8107   -3.4821   -7.6202 N   0  0  0  0  0  0  0  0  0  0  0  0
   53.0460   -3.7056   -8.0910 C   0  0  0  0  0  0  0  0  0  0  0  0
   53.7224   -3.1128   -9.1375 C   0  0  0  0  0  0  0  0  0  0  0  0
   54.9904   -3.5084   -9.4374 C   0  0  0  0  0  0  0  0  0  0  0  0
   55.5672   -4.5035   -8.6749 C   0  0  0  0  0  0  0  0  0  0  0  0
   54.8825   -5.0893   -7.6314 C   0  0  0  0  0  0  0  0  0  0  0  0
   53.5901   -4.7035   -7.3067 C   0  0  0  0  0  0  0  0  0  0  0  0
   56.9169   -4.9309   -8.9876 C   0  0  0  0  0  0  0  0  0  0  0  0
   57.2852   -4.9589  -10.3277 C   0  0  0  0  0  0  0  0  0  0  0  0
   58.5705   -5.3665  -10.5945 C   0  0  0  0  0  0  0  0  0  0  0  0
   59.3943   -5.7132   -9.5484 C   0  0  0  0  0  0  0  0  0  0  0  0
   60.8050   -6.1637   -9.7882 C   0  0  0  0  0  0  0  0  0  0  0  0
   58.9988   -5.6726   -8.2566 N   0  0  0  0  0  0  0  0  0  0  0  0
   57.7544   -5.2802   -7.9696 C   0  0  0  0  0  0  0  0  0  0  0  0
   54.3347   -7.3367   -4.2409 C   0  0  0  0  0  0  0  0  0  0  0  0
   54.1649   -6.6343   -5.4168 O   0  0  0  0  0  0  0  0  0  0  0  0
   52.8877   -6.0735   -5.3898 C   0  0  0  0  0  0  0  0  0  0  0  0
   52.8625   -5.5374   -3.9581 C   0  0  0  0  0  0  0  0  0  0  0  0
   53.3429   -6.8051   -3.2304 C   0  0  0  0  0  0  0  0  0  0  0  0
   56.4504   -6.6142   -4.7311 C   0  0  0  0  0  0  0  0  0  0  0  0
   55.6471   -7.2756   -3.7784 O   0  0  0  0  0  0  0  0  0  0  0  0
   53.8756   -6.5379   -1.9982 O   0  0  0  0  0  0  0  0  0  0  0  0
   53.8487   -5.1553   -1.7927 C   0  0  0  0  0  0  0  0  0  0  0  0
   50.3720   -4.3185   -5.8633 N   0  0  0  0  0  0  0  0  0  0  0  0
   49.5339   -3.1972   -5.7795 C   0  0  0  0  0  0  0  0  0  0  0  0
   48.2736   -3.2792   -5.0132 C   0  0  0  0  0  0  0  0  0  0  0  0
   49.8220   -2.1162   -6.3394 O   0  0  0  0  0  0  0  0  0  0  0  0
   50.0970   -5.1979   -5.3840 H   0  0  0  0  0  0  0  0  0  0  0  0
 22 23  1  0  0  0
 23 17  1  0  0  0
 17 18  1  0  0  0
 18 19  1  0  0  0
 19 20  1  0  0  0
 20 21  1  0  0  0
 21 24  1  0  0  0
 24 25  1  0  0  0
 19  1  1  0  0  0
  1  2  1  0  0  0
  2 26  1  0  0  0
 26 27  1  0  0  0
 27 28  1  0  0  0
 27 29  2  0  0  0
  2  3  2  0  0  0
  3  4  1  0  0  0
  4  5  2  0  0  0
  5  6  1  0  0  0
  6  7  2  0  0  0
  7  8  1  0  0  0
  8  9  2  0  0  0
  7 10  1  0  0  0
 10 11  2  0  0  0
 11 12  1  0  0  0
 12 13  2  0  0  0
 13 14  1  0  0  0
 13 15  1  0  0  0
 15 16  2  0  0  0
 21 17  1  0  0  0
  9  1  1  0  0  0
 16 10  1  0  0  0
  9  4  1  0  0  0
 26 30  1  0  0  0
M  END
> <minimizedAffinity>
-9.42962

> <CNNscore>
0.4932306707

> <CNNaffinity>
6.6784338951

> <CNN_VS>
3.2940084934

> <CNNaffinity_variance>
0.2369276583

$$$$
[H]c1nc(C([H])([H])[H])c([H])c([H])c1-c1c([H])c([H])c2nc(N([H])C(=O)C([H])([H])[H])n([C@@]3([H])O[C@@]([H])(OC([H])([H])[H])[C@@]([H])(OC([H])([H])[H])C3([H])[H])c2c1[H]


 30 33  0  0  0  0  0  0  0  0999 V2000
   61.6591   -8.1039   -5.9929 N   0  0  0  0  0  0  0  0  0  0  0  0
   61.7257   -7.8531   -7.3189 C   0  0  0  0  0  0  0  0  0  0  0  0
   62.6915   -8.6129   -7.8711 N   0  0  0  0  0  0  0  0  0  0  0  0
   63.2499   -9.3549   -6.9041 C   0  0  0  0  0  0  0  0  0  0  0  0
   64.2710  -10.2808   -6.9677 C   0  0  0  0  0  0  0  0  0  0  0  0
   64.6780  -10.9217   -5.8373 C   0  0  0  0  0  0  0  0  0  0  0  0
   64.0478  -10.6210   -4.6470 C   0  0  0  0  0  0  0  0  0  0  0  0
   63.0284   -9.6942   -4.5944 C   0  0  0  0  0  0  0  0  0  0  0  0
   62.5962   -9.0285   -5.7322 C   0  0  0  0  0  0  0  0  0  0  0  0
   64.4748  -11.2990   -3.4386 C   0  0  0  0  0  0  0  0  0  0  0  0
   64.2081  -10.6741   -2.2258 C   0  0  0  0  0  0  0  0  0  0  0  0
   64.6226  -11.3400   -1.0970 C   0  0  0  0  0  0  0  0  0  0  0  0
   65.2594  -12.5524   -1.2301 C   0  0  0  0  0  0  0  0  0  0  0  0
   65.7299  -13.3176   -0.0286 C   0  0  0  0  0  0  0  0  0  0  0  0
   65.5008  -13.1284   -2.4288 N   0  0  0  0  0  0  0  0  0  0  0  0
   65.1084  -12.5021   -3.5418 C   0  0  0  0  0  0  0  0  0  0  0  0
   58.6706   -7.1836   -4.3777 C   0  0  0  0  0  0  0  0  0  0  0  0
   59.4578   -7.4597   -5.4773 O   0  0  0  0  0  0  0  0  0  0  0  0
   60.7815   -7.5206   -5.0410 C   0  0  0  0  0  0  0  0  0  0  0  0
   60.6055   -8.3560   -3.7725 C   0  0  0  0  0  0  0  0  0  0  0  0
   59.4470   -7.5672   -3.1378 C   0  0  0  0  0  0  0  0  0  0  0  0
   56.4068   -6.8506   -4.4314 C   0  0  0  0  0  0  0  0  0  0  0  0
   57.4329   -7.8188   -4.4459 O   0  0  0  0  0  0  0  0  0  0  0  0
   58.7382   -8.3069   -2.2302 O   0  0  0  0  0  0  0  0  0  0  0  0
   59.1001   -9.6499   -2.3718 C   0  0  0  0  0  0  0  0  0  0  0  0
   60.9442   -6.9526   -8.0881 N   0  0  0  0  0  0  0  0  0  0  0  0
   61.0080   -6.8954   -9.4878 C   0  0  0  0  0  0  0  0  0  0  0  0
   60.1635   -5.9305  -10.2215 C   0  0  0  0  0  0  0  0  0  0  0  0
   61.7660   -7.6438  -10.1438 O   0  0  0  0  0  0  0  0  0  0  0  0
   60.3019   -6.3140   -7.5800 H   0  0  0  0  0  0  0  0  0  0  0  0
 22 23  1  0  0  0
 23 17  1  0  0  0
 17 18  1  0  0  0
 18 19  1  0  0  0
 19 20  1  0  0  0
 20 21  1  0  0  0
 21 24  1  0  0  0
 24 25  1  0  0  0
 19  1  1  0  0  0
  1  2  1  0  0  0
  2 26  1  0  0  0
 26 27  1  0  0  0
 27 28  1  0  0  0
 27 29  2  0  0  0
  2  3  2  0  0  0
  3  4  1  0  0  0
  4  5  2  0  0  0
  5  6  1  0  0  0
  6  7  2  0  0  0
  7  8  1  0  0  0
  8  9  2  0  0  0
  7 10  1  0  0  0
 10 11  2  0  0  0
 11 12  1  0  0  0
 12 13  2  0  0  0
 13 14  1  0  0  0
 13 15  1  0  0  0
 15 16  2  0  0  0
 21 17  1  0  0  0
  9  1  1  0  0  0
 16 10  1  0  0  0
  9  4  1  0  0  0
 26 30  1  0  0  0
M  END
> <minimizedAffinity>
-1.55793

> <CNNscore>
0.4569023550

> <CNNaffinity>
5.1959600449

> <CNN_VS>
2.3740463257

> <CNNaffinity_variance>
1.0731683969

$$$$
[H]c1nc(C([H])([H])[H])c([H])c([H])c1-c1c([H])c([H])c2nc(N([H])C(=O)C([H])([H])[H])n([C@@]3([H])O[C@@]([H])(OC([H])([H])[H])[C@@]([H])(OC([H])([H])[H])C3([H])[H])c2c1[H]


 30 33  0  0  0  0  0  0  0  0999 V2000
   55.0927   -5.1571   -7.5813 N   0  0  0  0  0  0  0  0  0  0  0  0
   55.6869   -5.5297   -6.4266 C   0  0  0  0  0  0  0  0  0  0  0  0
   57.0167   -5.6295   -6.6184 N   0  0  0  0  0  0  0  0  0  0  0  0
   57.2835   -5.3220   -7.8958 C   0  0  0  0  0  0  0  0  0  0  0  0
   58.4865   -5.2797   -8.5704 C   0  0  0  0  0  0  0  0  0  0  0  0
   58.5147   -4.9348   -9.8874 C   0  0  0  0  0  0  0  0  0  0  0  0
   57.3230   -4.6342  -10.5148 C   0  0  0  0  0  0  0  0  0  0  0  0
   56.1264   -4.6794   -9.8315 C   0  0  0  0  0  0  0  0  0  0  0  0
   56.0719   -5.0278   -8.4897 C   0  0  0  0  0  0  0  0  0  0  0  0
   57.3440   -4.2657  -11.9170 C   0  0  0  0  0  0  0  0  0  0  0  0
   56.1223   -4.1782  -12.5742 C   0  0  0  0  0  0  0  0  0  0  0  0
   56.1723   -3.8256  -13.9018 C   0  0  0  0  0  0  0  0  0  0  0  0
   57.3948   -3.5866  -14.4860 C   0  0  0  0  0  0  0  0  0  0  0  0
   57.5015   -3.1986  -15.9312 C   0  0  0  0  0  0  0  0  0  0  0  0
   58.5628   -3.6821  -13.8125 N   0  0  0  0  0  0  0  0  0  0  0  0
   58.5424   -4.0233  -12.5209 C   0  0  0  0  0  0  0  0  0  0  0  0
   51.6266   -4.9778   -6.9972 C   0  0  0  0  0  0  0  0  0  0  0  0
   52.8882   -5.5171   -6.8480 O   0  0  0  0  0  0  0  0  0  0  0  0
   53.7093   -4.9376   -7.8156 C   0  0  0  0  0  0  0  0  0  0  0  0
   53.2865   -3.4743   -7.6819 C   0  0  0  0  0  0  0  0  0  0  0  0
   51.7617   -3.6699   -7.7446 C   0  0  0  0  0  0  0  0  0  0  0  0
   51.1155   -6.0066   -5.0175 C   0  0  0  0  0  0  0  0  0  0  0  0
   50.9735   -4.8257   -5.7764 O   0  0  0  0  0  0  0  0  0  0  0  0
   51.0713   -2.6257   -7.1911 O   0  0  0  0  0  0  0  0  0  0  0  0
   49.7231   -2.7495   -7.5400 C   0  0  0  0  0  0  0  0  0  0  0  0
   55.0859   -5.7939   -5.1687 N   0  0  0  0  0  0  0  0  0  0  0  0
   54.8647   -7.0933   -4.6899 C   0  0  0  0  0  0  0  0  0  0  0  0
   54.2328   -7.2905   -3.3692 C   0  0  0  0  0  0  0  0  0  0  0  0
   55.1890   -8.1036   -5.3526 O   0  0  0  0  0  0  0  0  0  0  0  0
   54.8021   -4.9809   -4.5881 H   0  0  0  0  0  0  0  0  0  0  0  0
 22 23  1  0  0  0
 23 17  1  0  0  0
 17 18  1  0  0  0
 18 19  1  0  0  0
 19 20  1  0  0  0
 20 21  1  0  0  0
 21 24  1  0  0  0
 24 25  1  0  0  0
 19  1  1  0  0  0
  1  2  1  0  0  0
  2 26  1  0  0  0
 26 27  1  0  0  0
 27 28  1  0  0  0
 27 29  2  0  0  0
  2  3  2  0  0  0
  3  4  1  0  0  0
  4  5  2  0  0  0
  5  6  1  0  0  0
  6  7  2  0  0  0
  7  8  1  0  0  0
  8  9  2  0  0  0
  7 10  1  0  0  0
 10 11  2  0  0  0
 11 12  1  0  0  0
 12 13  2  0  0  0
 13 14  1  0  0  0
 13 15  1  0  0  0
 15 16  2  0  0  0
 21 17  1  0  0  0
  9  1  1  0  0  0
 16 10  1  0  0  0
  9  4  1  0  0  0
 26 30  1  0  0  0
M  END
> <minimizedAffinity>
-8.86652

> <CNNscore>
0.4511808157

> <CNNaffinity>
6.5404710770

> <CNN_VS>
2.9509351254

> <CNNaffinity_variance>
0.0518921837

$$$$
[H]c1nc(C([H])([H])[H])c([H])c([H])c1-c1c([H])c([H])c2nc(N([H])C(=O)C([H])([H])[H])n([C@@]3([H])O[C@@]([H])(OC([H])([H])[H])[C@@]([H])(OC([H])([H])[H])C3([H])[H])c2c1[H]


 30 33  0  0  0  0  0  0  0  0999 V2000
   52.1740   -5.1856   -6.0262 N   0  0  0  0  0  0  0  0  0  0  0  0
   50.9743   -4.5896   -5.8498 C   0  0  0  0  0  0  0  0  0  0  0  0
   50.7885   -3.6629   -6.8099 N   0  0  0  0  0  0  0  0  0  0  0  0
   51.8665   -3.6585   -7.6071 C   0  0  0  0  0  0  0  0  0  0  0  0
   52.1495   -2.8937   -8.7202 C   0  0  0  0  0  0  0  0  0  0  0  0
   53.3274   -3.0664   -9.3812 C   0  0  0  0  0  0  0  0  0  0  0  0
   54.2134   -4.0140   -8.9108 C   0  0  0  0  0  0  0  0  0  0  0  0
   53.9208   -4.7730   -7.7976 C   0  0  0  0  0  0  0  0  0  0  0  0
   52.7277   -4.6156   -7.1075 C   0  0  0  0  0  0  0  0  0  0  0  0
   55.4699   -4.2045   -9.6088 C   0  0  0  0  0  0  0  0  0  0  0  0
   56.5472   -4.6791   -8.8696 C   0  0  0  0  0  0  0  0  0  0  0  0
   57.7249   -4.8515   -9.5572 C   0  0  0  0  0  0  0  0  0  0  0  0
   57.7670   -4.5526  -10.8995 C   0  0  0  0  0  0  0  0  0  0  0  0
   59.0282   -4.7246  -11.6935 C   0  0  0  0  0  0  0  0  0  0  0  0
   56.6962   -4.0926  -11.5843 N   0  0  0  0  0  0  0  0  0  0  0  0
   55.5394   -3.9159  -10.9398 C   0  0  0  0  0  0  0  0  0  0  0  0
   54.6217   -7.2778   -4.6055 C   0  0  0  0  0  0  0  0  0  0  0  0
   54.0655   -6.5202   -5.6162 O   0  0  0  0  0  0  0  0  0  0  0  0
   52.7575   -6.2140   -5.2397 C   0  0  0  0  0  0  0  0  0  0  0  0
   52.9861   -5.8189   -3.7804 C   0  0  0  0  0  0  0  0  0  0  0  0
   53.8254   -7.0321   -3.3435 C   0  0  0  0  0  0  0  0  0  0  0  0
   56.4556   -6.2824   -5.5461 C   0  0  0  0  0  0  0  0  0  0  0  0
   55.9785   -7.0117   -4.4366 O   0  0  0  0  0  0  0  0  0  0  0  0
   54.5847   -6.7779   -2.2334 O   0  0  0  0  0  0  0  0  0  0  0  0
   54.5033   -5.4128   -1.9424 C   0  0  0  0  0  0  0  0  0  0  0  0
   50.0040   -4.8371   -4.8446 N   0  0  0  0  0  0  0  0  0  0  0  0
   49.0614   -3.8785   -4.4457 C   0  0  0  0  0  0  0  0  0  0  0  0
   48.0810   -4.2087   -3.3910 C   0  0  0  0  0  0  0  0  0  0  0  0
   49.0228   -2.7388   -4.9599 O   0  0  0  0  0  0  0  0  0  0  0  0
   50.0032   -5.7723   -4.3930 H   0  0  0  0  0  0  0  0  0  0  0  0
 22 23  1  0  0  0
 23 17  1  0  0  0
 17 18  1  0  0  0
 18 19  1  0  0  0
 19 20  1  0  0  0
 20 21  1  0  0  0
 21 24  1  0  0  0
 24 25  1  0  0  0
 19  1  1  0  0  0
  1  2  1  0  0  0
  2 26  1  0  0  0
 26 27  1  0  0  0
 27 28  1  0  0  0
 27 29  2  0  0  0
  2  3  2  0  0  0
  3  4  1  0  0  0
  4  5  2  0  0  0
  5  6  1  0  0  0
  6  7  2  0  0  0
  7  8  1  0  0  0
  8  9  2  0  0  0
  7 10  1  0  0  0
 10 11  2  0  0  0
 11 12  1  0  0  0
 12 13  2  0  0  0
 13 14  1  0  0  0
 13 15  1  0  0  0
 15 16  2  0  0  0
 21 17  1  0  0  0
  9  1  1  0  0  0
 16 10  1  0  0  0
  9  4  1  0  0  0
 26 30  1  0  0  0
M  END
> <minimizedAffinity>
-9.29038

> <CNNscore>
0.4349825978

> <CNNaffinity>
6.8132829666

> <CNN_VS>
2.9636595249

> <CNNaffinity_variance>
0.2098626345

$$$$
[H]c1nc(C([H])([H])[H])c([H])c([H])c1-c1c([H])c([H])c2nc(N([H])C(=O)C([H])([H])[H])n([C@@]3([H])O[C@@]([H])(OC([H])([H])[H])[C@@]([H])(OC([H])([H])[H])C3([H])[H])c2c1[H]


 30 33  0  0  0  0  0  0  0  0999 V2000
   52.9230   -4.9085   -6.5454 N   0  0  0  0  0  0  0  0  0  0  0  0
   51.7990   -4.2094   -6.8161 C   0  0  0  0  0  0  0  0  0  0  0  0
   51.9680   -3.5127   -7.9568 N   0  0  0  0  0  0  0  0  0  0  0  0
   53.1999   -3.7602   -8.4244 C   0  0  0  0  0  0  0  0  0  0  0  0
   53.8373   -3.2868   -9.5530 C   0  0  0  0  0  0  0  0  0  0  0  0
   55.1104   -3.6823   -9.8302 C   0  0  0  0  0  0  0  0  0  0  0  0
   55.7320   -4.5564   -8.9618 C   0  0  0  0  0  0  0  0  0  0  0  0
   55.0860   -5.0236   -7.8369 C   0  0  0  0  0  0  0  0  0  0  0  0
   53.7893   -4.6353   -7.5333 C   0  0  0  0  0  0  0  0  0  0  0  0
   57.0875   -4.9829   -9.2495 C   0  0  0  0  0  0  0  0  0  0  0  0
   57.8877   -5.3430   -8.1714 C   0  0  0  0  0  0  0  0  0  0  0  0
   59.1671   -5.7445   -8.4738 C   0  0  0  0  0  0  0  0  0  0  0  0
   59.5694   -5.7657   -9.7893 C   0  0  0  0  0  0  0  0  0  0  0  0
   60.9550   -6.1965  -10.1700 C   0  0  0  0  0  0  0  0  0  0  0  0
   58.7606   -5.4076  -10.8114 N   0  0  0  0  0  0  0  0  0  0  0  0
   57.5122   -5.0132  -10.5451 C   0  0  0  0  0  0  0  0  0  0  0  0
   54.1554   -6.0587   -3.4559 C   0  0  0  0  0  0  0  0  0  0  0  0
   54.2225   -5.3456   -4.6356 O   0  0  0  0  0  0  0  0  0  0  0  0
   53.1666   -5.7696   -5.4428 C   0  0  0  0  0  0  0  0  0  0  0  0
   52.0356   -5.7879   -4.4139 C   0  0  0  0  0  0  0  0  0  0  0  0
   52.7459   -6.5865   -3.3071 C   0  0  0  0  0  0  0  0  0  0  0  0
   55.9482   -5.0832   -2.4200 C   0  0  0  0  0  0  0  0  0  0  0  0
   54.5550   -5.2980   -2.3597 O   0  0  0  0  0  0  0  0  0  0  0  0
   52.1919   -6.3860   -2.0717 O   0  0  0  0  0  0  0  0  0  0  0  0
   50.8718   -5.9576   -2.2407 C   0  0  0  0  0  0  0  0  0  0  0  0
   50.5901   -4.1585   -6.0750 N   0  0  0  0  0  0  0  0  0  0  0  0
   49.7478   -3.0373   -6.0710 C   0  0  0  0  0  0  0  0  0  0  0  0
   48.5040   -3.0574   -5.2740 C   0  0  0  0  0  0  0  0  0  0  0  0
   50.0181   -2.0078   -6.7284 O   0  0  0  0  0  0  0  0  0  0  0  0
   50.3301   -4.9941   -5.5158 H   0  0  0  0  0  0  0  0  0  0  0  0
 22 23  1  0  0  0
 23 17  1  0  0  0
 17 18  1  0  0  0
 18 19  1  0  0  0
 19 20  1  0  0  0
 20 21  1  0  0  0
 21 24  1  0  0  0
 24 25  1  0  0  0
 19  1  1  0  0  0
  1  2  1  0  0  0
  2 26  1  0  0  0
 26 27  1  0  0  0
 27 28  1  0  0  0
 27 29  2  0  0  0
  2  3  2  0  0  0
  3  4  1  0  0  0
  4  5  2  0  0  0
  5  6  1  0  0  0
  6  7  2  0  0  0
  7  8  1  0  0  0
  8  9  2  0  0  0
  7 10  1  0  0  0
 10 11  2  0  0  0
 11 12  1  0  0  0
 12 13  2  0  0  0
 13 14  1  0  0  0
 13 15  1  0  0  0
 15 16  2  0  0  0
 21 17  1  0  0  0
  9  1  1  0  0  0
 16 10  1  0  0  0
  9  4  1  0  0  0
 26 30  1  0  0  0
M  END
> <minimizedAffinity>
-9.72768

> <CNNscore>
0.4295528829

> <CNNaffinity>
6.6357183456

> <CNN_VS>
2.8503918648

> <CNNaffinity_variance>
0.3074086010

$$$$
[H]c1nc(C([H])([H])[H])c([H])c([H])c1-c1c([H])c([H])c2nc(N([H])C(=O)C([H])([H])[H])n([C@@]3([H])O[C@@]([H])(OC([H])([H])[H])[C@@]([H])(OC([H])([H])[H])C3([H])[H])c2c1[H]


 30 33  0  0  0  0  0  0  0  0999 V2000
   53.3062   -4.6352   -6.5660 N   0  0  0  0  0  0  0  0  0  0  0  0
   52.1145   -4.1259   -6.9481 C   0  0  0  0  0  0  0  0  0  0  0  0
   52.1848   -3.7383   -8.2365 N   0  0  0  0  0  0  0  0  0  0  0  0
   53.4206   -3.9960   -8.6883 C   0  0  0  0  0  0  0  0  0  0  0  0
   53.9782   -3.7812   -9.9320 C   0  0  0  0  0  0  0  0  0  0  0  0
   55.2742   -4.1285  -10.1643 C   0  0  0  0  0  0  0  0  0  0  0  0
   55.9993   -4.6923   -9.1344 C   0  0  0  0  0  0  0  0  0  0  0  0
   55.4325   -4.9028   -7.8953 C   0  0  0  0  0  0  0  0  0  0  0  0
   54.1144   -4.5575   -7.6345 C   0  0  0  0  0  0  0  0  0  0  0  0
   57.3800   -5.0652   -9.3732 C   0  0  0  0  0  0  0  0  0  0  0  0
   58.1406   -5.4426   -8.2726 C   0  0  0  0  0  0  0  0  0  0  0  0
   59.4450   -5.7924   -8.5287 C   0  0  0  0  0  0  0  0  0  0  0  0
   59.9083   -5.7496   -9.8235 C   0  0  0  0  0  0  0  0  0  0  0  0
   61.3234   -6.1223  -10.1537 C   0  0  0  0  0  0  0  0  0  0  0  0
   59.1366   -5.3767  -10.8686 N   0  0  0  0  0  0  0  0  0  0  0  0
   57.8650   -5.0317  -10.6473 C   0  0  0  0  0  0  0  0  0  0  0  0
   53.0074   -6.2494   -3.4528 C   0  0  0  0  0  0  0  0  0  0  0  0
   52.5569   -5.4729   -4.5011 O   0  0  0  0  0  0  0  0  0  0  0  0
   53.6607   -5.1569   -5.2937 C   0  0  0  0  0  0  0  0  0  0  0  0
   54.3431   -6.5237   -5.3568 C   0  0  0  0  0  0  0  0  0  0  0  0
   54.3346   -6.8535   -3.8540 C   0  0  0  0  0  0  0  0  0  0  0  0
   51.1869   -6.6679   -2.1301 C   0  0  0  0  0  0  0  0  0  0  0  0
   52.0768   -7.2157   -3.0781 O   0  0  0  0  0  0  0  0  0  0  0  0
   54.4460   -8.1950   -3.6062 O   0  0  0  0  0  0  0  0  0  0  0  0
   55.6880   -8.4354   -3.0108 C   0  0  0  0  0  0  0  0  0  0  0  0
   50.9280   -3.9843   -6.1831 N   0  0  0  0  0  0  0  0  0  0  0  0
   50.0485   -2.9030   -6.3377 C   0  0  0  0  0  0  0  0  0  0  0  0
   48.8313   -2.8228   -5.5044 C   0  0  0  0  0  0  0  0  0  0  0  0
   50.2634   -1.9927   -7.1685 O   0  0  0  0  0  0  0  0  0  0  0  0
   50.7139   -4.7200   -5.4820 H   0  0  0  0  0  0  0  0  0  0  0  0
 22 23  1  0  0  0
 23 17  1  0  0  0
 17 18  1  0  0  0
 18 19  1  0  0  0
 19 20  1  0  0  0
 20 21  1  0  0  0
 21 24  1  0  0  0
 24 25  1  0  0  0
 19  1  1  0  0  0
  1  2  1  0  0  0
  2 26  1  0  0  0
 26 27  1  0  0  0
 27 28  1  0  0  0
 27 29  2  0  0  0
  2  3  2  0  0  0
  3  4  1  0  0  0
  4  5  2  0  0  0
  5  6  1  0  0  0
  6  7  2  0  0  0
  7  8  1  0  0  0
  8  9  2  0  0  0
  7 10  1  0  0  0
 10 11  2  0  0  0
 11 12  1  0  0  0
 12 13  2  0  0  0
 13 14  1  0  0  0
 13 15  1  0  0  0
 15 16  2  0  0  0
 21 17  1  0  0  0
  9  1  1  0  0  0
 16 10  1  0  0  0
  9  4  1  0  0  0
 26 30  1  0  0  0
M  END
> <minimizedAffinity>
-8.92902

> <CNNscore>
0.4263800979

> <CNNaffinity>
6.6680212021

> <CNN_VS>
2.8431115150

> <CNNaffinity_variance>
0.2482275218

$$$$
[H]c1nc(N([H])c2c([H])c([H])c3c([H])c([H])c([H])c([H])c3c2[H])nc(N2C(=O)N([H])C([H])(c3c([H])c([H])c([H])c([H])c3[H])C([H])([H])C2([H])[H])c1Cl


 33 37  0  0  0  0  0  0  0  0999 V2000
   51.8877   -3.8563   -7.1439 C   0  0  0  0  0  0  0  0  0  0  0  0
   52.8832   -3.9612   -7.9971 N   0  0  0  0  0  0  0  0  0  0  0  0
   53.0478   -3.0814   -9.0242 C   0  0  0  0  0  0  0  0  0  0  0  0
   52.1360   -2.1141   -9.1035 N   0  0  0  0  0  0  0  0  0  0  0  0
   51.1005   -1.9579   -8.2627 C   0  0  0  0  0  0  0  0  0  0  0  0
   50.9564   -2.8613   -7.2318 C   0  0  0  0  0  0  0  0  0  0  0  0
   49.6541   -2.7722   -6.0695 Cl  0  0  0  0  0  0  0  0  0  0  0  0
   53.2868   -6.3152   -7.0912 O   0  0  0  0  0  0  0  0  0  0  0  0
   52.7005   -5.8840   -6.0603 C   0  0  0  0  0  0  0  0  0  0  0  0
   51.7809   -4.8023   -6.1061 N   0  0  0  0  0  0  0  0  0  0  0  0
   50.7396   -4.6609   -5.1099 C   0  0  0  0  0  0  0  0  0  0  0  0
   50.7829   -5.7878   -4.0976 C   0  0  0  0  0  0  0  0  0  0  0  0
   52.2029   -5.9728   -3.6762 C   0  0  0  0  0  0  0  0  0  0  0  0
   52.9546   -6.4879   -4.8000 N   0  0  0  0  0  0  0  0  0  0  0  0
   53.6550   -7.2592   -4.7350 H   0  0  0  0  0  0  0  0  0  0  0  0
   52.3964   -6.9064   -2.5520 C   0  0  0  0  0  0  0  0  0  0  0  0
   53.6596   -6.9315   -1.9735 C   0  0  0  0  0  0  0  0  0  0  0  0
   53.9748   -7.7586   -0.9176 C   0  0  0  0  0  0  0  0  0  0  0  0
   53.0052   -8.5955   -0.4108 C   0  0  0  0  0  0  0  0  0  0  0  0
   51.7573   -8.5674   -0.9860 C   0  0  0  0  0  0  0  0  0  0  0  0
   51.4331   -7.7401   -2.0459 C   0  0  0  0  0  0  0  0  0  0  0  0
   54.1296   -3.2911   -9.9006 N   0  0  0  0  0  0  0  0  0  0  0  0
   54.0581   -3.0004  -10.9264 H   0  0  0  0  0  0  0  0  0  0  0  0
   55.3514   -3.8812   -9.5277 C   0  0  0  0  0  0  0  0  0  0  0  0
   55.6106   -4.0534   -8.1439 C   0  0  0  0  0  0  0  0  0  0  0  0
   56.7990   -4.5965   -7.7841 C   0  0  0  0  0  0  0  0  0  0  0  0
   57.7732   -4.9932   -8.6701 C   0  0  0  0  0  0  0  0  0  0  0  0
   58.9577   -5.5390   -8.2311 C   0  0  0  0  0  0  0  0  0  0  0  0
   59.9088   -5.9238   -9.1603 C   0  0  0  0  0  0  0  0  0  0  0  0
   59.6234   -5.7401  -10.5173 C   0  0  0  0  0  0  0  0  0  0  0  0
   58.4290   -5.1904  -10.9444 C   0  0  0  0  0  0  0  0  0  0  0  0
   57.5023   -4.8166  -10.0165 C   0  0  0  0  0  0  0  0  0  0  0  0
   56.2949   -4.2619  -10.4428 C   0  0  0  0  0  0  0  0  0  0  0  0
  8  9  2  0  0  0
  9 10  1  0  0  0
 10 11  1  0  0  0
 11 12  1  0  0  0
 12 13  1  0  0  0
 13 14  1  0  0  0
 13 16  1  0  0  0
 16 17  2  0  0  0
 17 18  1  0  0  0
 18 19  2  0  0  0
 19 20  1  0  0  0
 20 21  2  0  0  0
 10  1  1  0  0  0
  1  2  2  0  0  0
  2  3  1  0  0  0
  3 22  1  0  0  0
 22 24  1  0  0  0
 24 25  2  0  0  0
 25 26  1  0  0  0
 26 27  2  0  0  0
 27 28  1  0  0  0
 28 29  2  0  0  0
 29 30  1  0  0  0
 30 31  2  0  0  0
 31 32  1  0  0  0
 32 33  2  0  0  0
  3  4  2  0  0  0
  4  5  1  0  0  0
  5  6  2  0  0  0
  6  7  1  0  0  0
 14  9  1  0  0  0
 21 16  1  0  0  0
  6  1  1  0  0  0
 33 24  1  0  0  0
 32 27  1  0  0  0
 14 15  1  0  0  0
 22 23  1  0  0  0
M  END
> <minimizedAffinity>
-11.06896

> <CNNscore>
0.8471459150

> <CNNaffinity>
7.5701355934

> <CNN_VS>
6.4130096436

> <CNNaffinity_variance>
0.0571969040

$$$$
[H]c1nc(N([H])c2c([H])c([H])c3c([H])c([H])c([H])c([H])c3c2[H])nc(N2C(=O)N([H])C([H])(c3c([H])c([H])c([H])c([H])c3[H])C([H])([H])C2([H])[H])c1Cl


 33 37  0  0  0  0  0  0  0  0999 V2000
   54.6274   -4.3837   -7.8540 C   0  0  0  0  0  0  0  0  0  0  0  0
   53.4187   -3.9219   -7.6187 N   0  0  0  0  0  0  0  0  0  0  0  0
   52.7023   -3.2598   -8.5699 C   0  0  0  0  0  0  0  0  0  0  0  0
   53.3078   -3.1140   -9.7469 N   0  0  0  0  0  0  0  0  0  0  0  0
   54.5380   -3.5635  -10.0436 C   0  0  0  0  0  0  0  0  0  0  0  0
   55.2419   -4.2301   -9.0640 C   0  0  0  0  0  0  0  0  0  0  0  0
   56.8505   -4.8646   -9.3189 Cl  0  0  0  0  0  0  0  0  0  0  0  0
   56.5903   -3.1879   -6.2036 O   0  0  0  0  0  0  0  0  0  0  0  0
   56.0924   -4.3086   -5.9061 C   0  0  0  0  0  0  0  0  0  0  0  0
   55.3085   -5.0589   -6.8227 N   0  0  0  0  0  0  0  0  0  0  0  0
   55.2031   -6.4991   -6.7154 C   0  0  0  0  0  0  0  0  0  0  0  0
   56.0238   -7.0311   -5.5578 C   0  0  0  0  0  0  0  0  0  0  0  0
   55.7545   -6.1694   -4.3691 C   0  0  0  0  0  0  0  0  0  0  0  0
   56.3121   -4.8571   -4.6144 N   0  0  0  0  0  0  0  0  0  0  0  0
   56.8527   -4.3071   -3.9109 H   0  0  0  0  0  0  0  0  0  0  0  0
   56.3307   -6.6636   -3.1055 C   0  0  0  0  0  0  0  0  0  0  0  0
   56.4508   -5.7414   -2.0729 C   0  0  0  0  0  0  0  0  0  0  0  0
   56.9741   -6.0713   -0.8418 C   0  0  0  0  0  0  0  0  0  0  0  0
   57.3965   -7.3633   -0.6189 C   0  0  0  0  0  0  0  0  0  0  0  0
   57.2760   -8.2721   -1.6428 C   0  0  0  0  0  0  0  0  0  0  0  0
   56.7517   -7.9488   -2.8813 C   0  0  0  0  0  0  0  0  0  0  0  0
   51.4267   -2.7806   -8.2154 N   0  0  0  0  0  0  0  0  0  0  0  0
   50.9348   -2.0526   -8.8236 H   0  0  0  0  0  0  0  0  0  0  0  0
   50.7120   -3.1922   -7.0752 C   0  0  0  0  0  0  0  0  0  0  0  0
   51.2023   -4.3091   -6.3515 C   0  0  0  0  0  0  0  0  0  0  0  0
   50.4986   -4.7222   -5.2695 C   0  0  0  0  0  0  0  0  0  0  0  0
   49.3393   -4.1317   -4.8236 C   0  0  0  0  0  0  0  0  0  0  0  0
   48.6777   -4.6062   -3.7141 C   0  0  0  0  0  0  0  0  0  0  0  0
   47.5143   -3.9791   -3.3026 C   0  0  0  0  0  0  0  0  0  0  0  0
   47.0564   -2.8808   -4.0381 C   0  0  0  0  0  0  0  0  0  0  0  0
   47.7311   -2.4147   -5.1510 C   0  0  0  0  0  0  0  0  0  0  0  0
   48.8760   -3.0433   -5.5433 C   0  0  0  0  0  0  0  0  0  0  0  0
   49.5608   -2.5760   -6.6657 C   0  0  0  0  0  0  0  0  0  0  0  0
  8  9  2  0  0  0
  9 10  1  0  0  0
 10 11  1  0  0  0
 11 12  1  0  0  0
 12 13  1  0  0  0
 13 14  1  0  0  0
 13 16  1  0  0  0
 16 17  2  0  0  0
 17 18  1  0  0  0
 18 19  2  0  0  0
 19 20  1  0  0  0
 20 21  2  0  0  0
 10  1  1  0  0  0
  1  2  2  0  0  0
  2  3  1  0  0  0
  3 22  1  0  0  0
 22 24  1  0  0  0
 24 25  2  0  0  0
 25 26  1  0  0  0
 26 27  2  0  0  0
 27 28  1  0  0  0
 28 29  2  0  0  0
 29 30  1  0  0  0
 30 31  2  0  0  0
 31 32  1  0  0  0
 32 33  2  0  0  0
  3  4  2  0  0  0
  4  5  1  0  0  0
  5  6  2  0  0  0
  6  7  1  0  0  0
 14  9  1  0  0  0
 21 16  1  0  0  0
  6  1  1  0  0  0
 33 24  1  0  0  0
 32 27  1  0  0  0
 14 15  1  0  0  0
 22 23  1  0  0  0
M  END
> <minimizedAffinity>
-9.29305

> <CNNscore>
0.8004900813

> <CNNaffinity>
7.7506713867

> <CNN_VS>
6.2043356895

> <CNNaffinity_variance>
0.2647708952

$$$$
[H]c1nc(N([H])c2c([H])c([H])c3c([H])c([H])c([H])c([H])c3c2[H])nc(N2C(=O)N([H])C([H])(c3c([H])c([H])c([H])c([H])c3[H])C([H])([H])C2([H])[H])c1Cl


 33 37  0  0  0  0  0  0  0  0999 V2000
   53.4006   -4.4115   -7.4102 C   0  0  0  0  0  0  0  0  0  0  0  0
   54.1531   -4.2604   -8.4782 N   0  0  0  0  0  0  0  0  0  0  0  0
   53.7225   -3.5712   -9.5717 C   0  0  0  0  0  0  0  0  0  0  0  0
   52.4941   -3.0645   -9.4840 N   0  0  0  0  0  0  0  0  0  0  0  0
   51.6821   -3.1869   -8.4212 C   0  0  0  0  0  0  0  0  0  0  0  0
   52.1416   -3.8888   -7.3278 C   0  0  0  0  0  0  0  0  0  0  0  0
   51.1866   -4.1223   -5.8826 Cl  0  0  0  0  0  0  0  0  0  0  0  0
   55.9975   -4.0507   -6.3459 O   0  0  0  0  0  0  0  0  0  0  0  0
   55.1279   -4.7131   -5.7155 C   0  0  0  0  0  0  0  0  0  0  0  0
   53.9124   -5.1363   -6.3165 N   0  0  0  0  0  0  0  0  0  0  0  0
   53.1983   -6.2969   -5.8268 C   0  0  0  0  0  0  0  0  0  0  0  0
   53.9227   -6.9448   -4.6641 C   0  0  0  0  0  0  0  0  0  0  0  0
   54.3344   -5.8646   -3.7196 C   0  0  0  0  0  0  0  0  0  0  0  0
   55.3531   -5.0582   -4.3562 N   0  0  0  0  0  0  0  0  0  0  0  0
   56.2214   -4.7258   -3.8817 H   0  0  0  0  0  0  0  0  0  0  0  0
   54.8870   -6.3420   -2.4392 C   0  0  0  0  0  0  0  0  0  0  0  0
   55.4965   -7.5908   -2.4507 C   0  0  0  0  0  0  0  0  0  0  0  0
   56.0516   -8.1549   -1.3229 C   0  0  0  0  0  0  0  0  0  0  0  0
   56.0042   -7.4599   -0.1346 C   0  0  0  0  0  0  0  0  0  0  0  0
   55.4004   -6.2253   -0.1277 C   0  0  0  0  0  0  0  0  0  0  0  0
   54.8411   -5.6521   -1.2555 C   0  0  0  0  0  0  0  0  0  0  0  0
   54.5906   -3.4851  -10.6768 N   0  0  0  0  0  0  0  0  0  0  0  0
   54.2693   -3.0147  -11.5809 H   0  0  0  0  0  0  0  0  0  0  0  0
   55.9032   -3.9917  -10.6973 C   0  0  0  0  0  0  0  0  0  0  0  0
   56.5888   -4.0095  -11.9389 C   0  0  0  0  0  0  0  0  0  0  0  0
   57.8428   -4.5228  -11.9635 C   0  0  0  0  0  0  0  0  0  0  0  0
   58.4981   -5.0287  -10.8653 C   0  0  0  0  0  0  0  0  0  0  0  0
   59.7743   -5.5339  -10.9658 C   0  0  0  0  0  0  0  0  0  0  0  0
   60.3939   -6.0322   -9.8328 C   0  0  0  0  0  0  0  0  0  0  0  0
   59.6910   -6.0013   -8.6238 C   0  0  0  0  0  0  0  0  0  0  0  0
   58.4091   -5.4908   -8.5372 C   0  0  0  0  0  0  0  0  0  0  0  0
   57.8126   -5.0034   -9.6625 C   0  0  0  0  0  0  0  0  0  0  0  0
   56.5191   -4.4866   -9.5800 C   0  0  0  0  0  0  0  0  0  0  0  0
  8  9  2  0  0  0
  9 10  1  0  0  0
 10 11  1  0  0  0
 11 12  1  0  0  0
 12 13  1  0  0  0
 13 14  1  0  0  0
 13 16  1  0  0  0
 16 17  2  0  0  0
 17 18  1  0  0  0
 18 19  2  0  0  0
 19 20  1  0  0  0
 20 21  2  0  0  0
 10  1  1  0  0  0
  1  2  2  0  0  0
  2  3  1  0  0  0
  3 22  1  0  0  0
 22 24  1  0  0  0
 24 25  2  0  0  0
 25 26  1  0  0  0
 26 27  2  0  0  0
 27 28  1  0  0  0
 28 29  2  0  0  0
 29 30  1  0  0  0
 30 31  2  0  0  0
 31 32  1  0  0  0
 32 33  2  0  0  0
  3  4  2  0  0  0
  4  5  1  0  0  0
  5  6  2  0  0  0
  6  7  1  0  0  0
 14  9  1  0  0  0
 21 16  1  0  0  0
  6  1  1  0  0  0
 33 24  1  0  0  0
 32 27  1  0  0  0
 14 15  1  0  0  0
 22 23  1  0  0  0
M  END
> <minimizedAffinity>
-8.61812

> <CNNscore>
0.7235397100

> <CNNaffinity>
7.3670358658

> <CNN_VS>
5.3303427696

> <CNNaffinity_variance>
0.1957093179

$$$$
[H]c1nc(N([H])c2c([H])c([H])c3c([H])c([H])c([H])c([H])c3c2[H])nc(N2C(=O)N([H])C([H])(c3c([H])c([H])c([H])c([H])c3[H])C([H])([H])C2([H])[H])c1Cl


 33 37  0  0  0  0  0  0  0  0999 V2000
   52.1118   -4.8670   -6.0655 C   0  0  0  0  0  0  0  0  0  0  0  0
   52.8338   -4.3031   -7.0092 N   0  0  0  0  0  0  0  0  0  0  0  0
   52.2869   -3.4574   -7.9267 C   0  0  0  0  0  0  0  0  0  0  0  0
   50.9785   -3.2430   -7.8019 N   0  0  0  0  0  0  0  0  0  0  0  0
   50.1925   -3.7902   -6.8603 C   0  0  0  0  0  0  0  0  0  0  0  0
   50.7702   -4.6423   -5.9440 C   0  0  0  0  0  0  0  0  0  0  0  0
   49.8613   -5.4203   -4.6698 Cl  0  0  0  0  0  0  0  0  0  0  0  0
   54.0048   -6.8384   -6.7983 O   0  0  0  0  0  0  0  0  0  0  0  0
   53.8471   -6.5128   -5.5894 C   0  0  0  0  0  0  0  0  0  0  0  0
   52.7455   -5.7305   -5.1510 N   0  0  0  0  0  0  0  0  0  0  0  0
   52.2649   -5.8101   -3.7873 C   0  0  0  0  0  0  0  0  0  0  0  0
   53.0649   -6.8077   -2.9741 C   0  0  0  0  0  0  0  0  0  0  0  0
   54.5127   -6.5664   -3.2456 C   0  0  0  0  0  0  0  0  0  0  0  0
   54.7928   -6.9335   -4.6167 N   0  0  0  0  0  0  0  0  0  0  0  0
   55.6309   -7.4768   -4.9204 H   0  0  0  0  0  0  0  0  0  0  0  0
   55.4370   -7.3295   -2.3877 C   0  0  0  0  0  0  0  0  0  0  0  0
   56.5169   -7.9347   -3.0192 C   0  0  0  0  0  0  0  0  0  0  0  0
   57.4539   -8.6781   -2.3352 C   0  0  0  0  0  0  0  0  0  0  0  0
   57.3215   -8.8314   -0.9727 C   0  0  0  0  0  0  0  0  0  0  0  0
   56.2521   -8.2312   -0.3523 C   0  0  0  0  0  0  0  0  0  0  0  0
   55.3074   -7.4834   -1.0317 C   0  0  0  0  0  0  0  0  0  0  0  0
   53.1361   -2.9227   -8.9143 N   0  0  0  0  0  0  0  0  0  0  0  0
   52.8595   -2.0358   -9.4422 H   0  0  0  0  0  0  0  0  0  0  0  0
   54.3720   -3.4825   -9.2872 C   0  0  0  0  0  0  0  0  0  0  0  0
   54.6352   -3.6485  -10.6710 C   0  0  0  0  0  0  0  0  0  0  0  0
   55.8142   -4.2129  -11.0291 C   0  0  0  0  0  0  0  0  0  0  0  0
   56.7753   -4.6367  -10.1413 C   0  0  0  0  0  0  0  0  0  0  0  0
   57.9516   -5.2013  -10.5786 C   0  0  0  0  0  0  0  0  0  0  0  0
   58.8897   -5.6128   -9.6476 C   0  0  0  0  0  0  0  0  0  0  0  0
   58.5999   -5.4361   -8.2906 C   0  0  0  0  0  0  0  0  0  0  0  0
   57.4139   -4.8673   -7.8652 C   0  0  0  0  0  0  0  0  0  0  0  0
   56.5000   -4.4670   -8.7948 C   0  0  0  0  0  0  0  0  0  0  0  0
   55.3017   -3.8918   -8.3703 C   0  0  0  0  0  0  0  0  0  0  0  0
  8  9  2  0  0  0
  9 10  1  0  0  0
 10 11  1  0  0  0
 11 12  1  0  0  0
 12 13  1  0  0  0
 13 14  1  0  0  0
 13 16  1  0  0  0
 16 17  2  0  0  0
 17 18  1  0  0  0
 18 19  2  0  0  0
 19 20  1  0  0  0
 20 21  2  0  0  0
 10  1  1  0  0  0
  1  2  2  0  0  0
  2  3  1  0  0  0
  3 22  1  0  0  0
 22 24  1  0  0  0
 24 25  2  0  0  0
 25 26  1  0  0  0
 26 27  2  0  0  0
 27 28  1  0  0  0
 28 29  2  0  0  0
 29 30  1  0  0  0
 30 31  2  0  0  0
 31 32  1  0  0  0
 32 33  2  0  0  0
  3  4  2  0  0  0
  4  5  1  0  0  0
  5  6  2  0  0  0
  6  7  1  0  0  0
 14  9  1  0  0  0
 21 16  1  0  0  0
  6  1  1  0  0  0
 33 24  1  0  0  0
 32 27  1  0  0  0
 14 15  1  0  0  0
 22 23  1  0  0  0
M  END
> <minimizedAffinity>
-10.10455

> <CNNscore>
0.5840864778

> <CNNaffinity>
7.3595342636

> <CNN_VS>
4.2986044884

> <CNNaffinity_variance>
0.1891875714

$$$$
[H]c1nc(N([H])c2c([H])c([H])c3c([H])c([H])c([H])c([H])c3c2[H])nc(N2C(=O)N([H])C([H])(c3c([H])c([H])c([H])c([H])c3[H])C([H])([H])C2([H])[H])c1Cl


 33 37  0  0  0  0  0  0  0  0999 V2000
   55.2375   -4.8375   -7.4785 C   0  0  0  0  0  0  0  0  0  0  0  0
   54.0541   -4.2986   -7.6755 N   0  0  0  0  0  0  0  0  0  0  0  0
   53.7542   -3.6149   -8.8151 C   0  0  0  0  0  0  0  0  0  0  0  0
   54.7369   -3.5309   -9.7098 N   0  0  0  0  0  0  0  0  0  0  0  0
   55.9625   -4.0602   -9.5630 C   0  0  0  0  0  0  0  0  0  0  0  0
   56.2405   -4.7471   -8.4010 C   0  0  0  0  0  0  0  0  0  0  0  0
   57.7940   -5.4829   -8.0842 Cl  0  0  0  0  0  0  0  0  0  0  0  0
   56.4223   -3.6743   -5.1872 O   0  0  0  0  0  0  0  0  0  0  0  0
   55.8505   -4.7971   -5.1186 C   0  0  0  0  0  0  0  0  0  0  0  0
   55.4758   -5.5306   -6.2758 N   0  0  0  0  0  0  0  0  0  0  0  0
   55.3398   -6.9718   -6.2386 C   0  0  0  0  0  0  0  0  0  0  0  0
   55.6589   -7.5242   -4.8639 C   0  0  0  0  0  0  0  0  0  0  0  0
   54.9560   -6.6788   -3.8543 C   0  0  0  0  0  0  0  0  0  0  0  0
   55.5628   -5.3654   -3.8490 N   0  0  0  0  0  0  0  0  0  0  0  0
   55.7940   -4.8280   -2.9844 H   0  0  0  0  0  0  0  0  0  0  0  0
   55.0086   -7.1937   -2.4741 C   0  0  0  0  0  0  0  0  0  0  0  0
   53.7948   -7.5355   -1.8901 C   0  0  0  0  0  0  0  0  0  0  0  0
   53.7026   -8.0268   -0.6061 C   0  0  0  0  0  0  0  0  0  0  0  0
   54.8538   -8.1880    0.1328 C   0  0  0  0  0  0  0  0  0  0  0  0
   56.0519   -7.8488   -0.4487 C   0  0  0  0  0  0  0  0  0  0  0  0
   56.1529   -7.3551   -1.7368 C   0  0  0  0  0  0  0  0  0  0  0  0
   52.4682   -3.0521   -8.9233 N   0  0  0  0  0  0  0  0  0  0  0  0
   52.1645   -2.5679   -9.8263 H   0  0  0  0  0  0  0  0  0  0  0  0
   51.5049   -3.0682   -7.8976 C   0  0  0  0  0  0  0  0  0  0  0  0
   50.5708   -2.0021   -7.8472 C   0  0  0  0  0  0  0  0  0  0  0  0
   49.6606   -2.0034   -6.8431 C   0  0  0  0  0  0  0  0  0  0  0  0
   49.5799   -2.9694   -5.8674 C   0  0  0  0  0  0  0  0  0  0  0  0
   48.6265   -2.9057   -4.8771 C   0  0  0  0  0  0  0  0  0  0  0  0
   48.5837   -3.9013   -3.9164 C   0  0  0  0  0  0  0  0  0  0  0  0
   49.5192   -4.9385   -3.9934 C   0  0  0  0  0  0  0  0  0  0  0  0
   50.4718   -4.9901   -4.9939 C   0  0  0  0  0  0  0  0  0  0  0  0
   50.5006   -4.0017   -5.9330 C   0  0  0  0  0  0  0  0  0  0  0  0
   51.4599   -4.0497   -6.9452 C   0  0  0  0  0  0  0  0  0  0  0  0
  8  9  2  0  0  0
  9 10  1  0  0  0
 10 11  1  0  0  0
 11 12  1  0  0  0
 12 13  1  0  0  0
 13 14  1  0  0  0
 13 16  1  0  0  0
 16 17  2  0  0  0
 17 18  1  0  0  0
 18 19  2  0  0  0
 19 20  1  0  0  0
 20 21  2  0  0  0
 10  1  1  0  0  0
  1  2  2  0  0  0
  2  3  1  0  0  0
  3 22  1  0  0  0
 22 24  1  0  0  0
 24 25  2  0  0  0
 25 26  1  0  0  0
 26 27  2  0  0  0
 27 28  1  0  0  0
 28 29  2  0  0  0
 29 30  1  0  0  0
 30 31  2  0  0  0
 31 32  1  0  0  0
 32 33  2  0  0  0
  3  4  2  0  0  0
  4  5  1  0  0  0
  5  6  2  0  0  0
  6  7  1  0  0  0
 14  9  1  0  0  0
 21 16  1  0  0  0
  6  1  1  0  0  0
 33 24  1  0  0  0
 32 27  1  0  0  0
 14 15  1  0  0  0
 22 23  1  0  0  0
M  END
> <minimizedAffinity>
-10.66726

> <CNNscore>
0.5614325404

> <CNNaffinity>
7.3014106750

> <CNN_VS>
4.0992493629

> <CNNaffinity_variance>
0.1430237144

$$$$
[H]c1nc(N([H])c2c([H])c([H])c3c([H])c([H])c([H])c([H])c3c2[H])nc(N2C(=O)N([H])C([H])(c3c([H])c([H])c([H])c([H])c3[H])C([H])([H])C2([H])[H])c1Cl


 33 37  0  0  0  0  0  0  0  0999 V2000
   55.4240   -4.8230   -7.3078 C   0  0  0  0  0  0  0  0  0  0  0  0
   54.2238   -4.3379   -7.5400 N   0  0  0  0  0  0  0  0  0  0  0  0
   53.8869   -3.7929   -8.7424 C   0  0  0  0  0  0  0  0  0  0  0  0
   54.8519   -3.7857   -9.6601 N   0  0  0  0  0  0  0  0  0  0  0  0
   56.0931   -4.2658   -9.4796 C   0  0  0  0  0  0  0  0  0  0  0  0
   56.4085   -4.8120   -8.2542 C   0  0  0  0  0  0  0  0  0  0  0  0
   57.9858   -5.4704   -7.8884 Cl  0  0  0  0  0  0  0  0  0  0  0  0
   54.8225   -7.4875   -6.5695 O   0  0  0  0  0  0  0  0  0  0  0  0
   55.5793   -6.7747   -5.8542 C   0  0  0  0  0  0  0  0  0  0  0  0
   55.7006   -5.3718   -6.0406 N   0  0  0  0  0  0  0  0  0  0  0  0
   56.0981   -4.5026   -4.9529 C   0  0  0  0  0  0  0  0  0  0  0  0
   56.3276   -5.2828   -3.6741 C   0  0  0  0  0  0  0  0  0  0  0  0
   57.1459   -6.4853   -4.0099 C   0  0  0  0  0  0  0  0  0  0  0  0
   56.3452   -7.3769   -4.8205 N   0  0  0  0  0  0  0  0  0  0  0  0
   56.3020   -8.4116   -4.6891 H   0  0  0  0  0  0  0  0  0  0  0  0
   57.6190   -7.2546   -2.8450 C   0  0  0  0  0  0  0  0  0  0  0  0
   58.5435   -6.6278   -2.0182 C   0  0  0  0  0  0  0  0  0  0  0  0
   59.0674   -7.2352   -0.8980 C   0  0  0  0  0  0  0  0  0  0  0  0
   58.6637   -8.5129   -0.5791 C   0  0  0  0  0  0  0  0  0  0  0  0
   57.7493   -9.1291   -1.3995 C   0  0  0  0  0  0  0  0  0  0  0  0
   57.2187   -8.5262   -2.5257 C   0  0  0  0  0  0  0  0  0  0  0  0
   52.5851   -3.2766   -8.8871 N   0  0  0  0  0  0  0  0  0  0  0  0
   52.2689   -2.8617   -9.8197 H   0  0  0  0  0  0  0  0  0  0  0  0
   51.6209   -3.2541   -7.8624 C   0  0  0  0  0  0  0  0  0  0  0  0
   50.7233   -2.1568   -7.8193 C   0  0  0  0  0  0  0  0  0  0  0  0
   49.8126   -2.1215   -6.8162 C   0  0  0  0  0  0  0  0  0  0  0  0
   49.6983   -3.0784   -5.8351 C   0  0  0  0  0  0  0  0  0  0  0  0
   48.7467   -2.9767   -4.8463 C   0  0  0  0  0  0  0  0  0  0  0  0
   48.6693   -3.9646   -3.8798 C   0  0  0  0  0  0  0  0  0  0  0  0
   49.5693   -5.0333   -3.9496 C   0  0  0  0  0  0  0  0  0  0  0  0
   50.5205   -5.1229   -4.9487 C   0  0  0  0  0  0  0  0  0  0  0  0
   50.5836   -4.1416   -5.8935 C   0  0  0  0  0  0  0  0  0  0  0  0
   51.5417   -4.2280   -6.9043 C   0  0  0  0  0  0  0  0  0  0  0  0
  8  9  2  0  0  0
  9 10  1  0  0  0
 10 11  1  0  0  0
 11 12  1  0  0  0
 12 13  1  0  0  0
 13 14  1  0  0  0
 13 16  1  0  0  0
 16 17  2  0  0  0
 17 18  1  0  0  0
 18 19  2  0  0  0
 19 20  1  0  0  0
 20 21  2  0  0  0
 10  1  1  0  0  0
  1  2  2  0  0  0
  2  3  1  0  0  0
  3 22  1  0  0  0
 22 24  1  0  0  0
 24 25  2  0  0  0
 25 26  1  0  0  0
 26 27  2  0  0  0
 27 28  1  0  0  0
 28 29  2  0  0  0
 29 30  1  0  0  0
 30 31  2  0  0  0
 31 32  1  0  0  0
 32 33  2  0  0  0
  3  4  2  0  0  0
  4  5  1  0  0  0
  5  6  2  0  0  0
  6  7  1  0  0  0
 14  9  1  0  0  0
 21 16  1  0  0  0
  6  1  1  0  0  0
 33 24  1  0  0  0
 32 27  1  0  0  0
 14 15  1  0  0  0
 22 23  1  0  0  0
M  END
> <minimizedAffinity>
-10.70481

> <CNNscore>
0.4532283247

> <CNNaffinity>
7.1468086243

> <CNN_VS>
3.2391359806

> <CNNaffinity_variance>
0.1373150051

$$$$
[H]c1nc(N([H])c2c([H])c([H])c3c([H])c([H])c([H])c([H])c3c2[H])nc(N2C(=O)N([H])C([H])(c3c([H])c([H])c([H])c([H])c3[H])C([H])([H])C2([H])[H])c1Cl


 33 37  0  0  0  0  0  0  0  0999 V2000
   55.7695   -4.3934   -9.6479 C   0  0  0  0  0  0  0  0  0  0  0  0
   55.4619   -4.0119  -10.8684 N   0  0  0  0  0  0  0  0  0  0  0  0
   56.3430   -4.1224  -11.9017 C   0  0  0  0  0  0  0  0  0  0  0  0
   57.5299   -4.6403  -11.5913 N   0  0  0  0  0  0  0  0  0  0  0  0
   57.8989   -5.0461  -10.3653 C   0  0  0  0  0  0  0  0  0  0  0  0
   56.9891   -4.9237   -9.3374 C   0  0  0  0  0  0  0  0  0  0  0  0
   57.3422   -5.4126   -7.6968 Cl  0  0  0  0  0  0  0  0  0  0  0  0
   54.6298   -1.9191   -8.8826 O   0  0  0  0  0  0  0  0  0  0  0  0
   54.1299   -3.0091   -8.4895 C   0  0  0  0  0  0  0  0  0  0  0  0
   54.8076   -4.2496   -8.6294 N   0  0  0  0  0  0  0  0  0  0  0  0
   54.5285   -5.3603   -7.7432 C   0  0  0  0  0  0  0  0  0  0  0  0
   53.4832   -4.9958   -6.7084 C   0  0  0  0  0  0  0  0  0  0  0  0
   52.3657   -4.2978   -7.4099 C   0  0  0  0  0  0  0  0  0  0  0  0
   52.8456   -3.0175   -7.8829 N   0  0  0  0  0  0  0  0  0  0  0  0
   52.3120   -2.1239   -7.8038 H   0  0  0  0  0  0  0  0  0  0  0  0
   51.1776   -4.0419   -6.5758 C   0  0  0  0  0  0  0  0  0  0  0  0
   50.4204   -2.9218   -6.8970 C   0  0  0  0  0  0  0  0  0  0  0  0
   49.2877   -2.5675   -6.1972 C   0  0  0  0  0  0  0  0  0  0  0  0
   48.8843   -3.3491   -5.1372 C   0  0  0  0  0  0  0  0  0  0  0  0
   49.6361   -4.4558   -4.8229 C   0  0  0  0  0  0  0  0  0  0  0  0
   50.7742   -4.8183   -5.5205 C   0  0  0  0  0  0  0  0  0  0  0  0
   55.9309   -3.6635  -13.1673 N   0  0  0  0  0  0  0  0  0  0  0  0
   54.9531   -3.2540  -13.3015 H   0  0  0  0  0  0  0  0  0  0  0  0
   56.7294   -3.7028  -14.3254 C   0  0  0  0  0  0  0  0  0  0  0  0
   56.1486   -4.2110  -15.5154 C   0  0  0  0  0  0  0  0  0  0  0  0
   56.9260   -4.2744  -16.6236 C   0  0  0  0  0  0  0  0  0  0  0  0
   58.2423   -3.8789  -16.6742 C   0  0  0  0  0  0  0  0  0  0  0  0
   58.9711   -3.9716  -17.8378 C   0  0  0  0  0  0  0  0  0  0  0  0
   60.2930   -3.5610  -17.8407 C   0  0  0  0  0  0  0  0  0  0  0  0
   60.8367   -3.0654  -16.6509 C   0  0  0  0  0  0  0  0  0  0  0  0
   60.0929   -2.9778  -15.4889 C   0  0  0  0  0  0  0  0  0  0  0  0
   58.7919   -3.3862  -15.5026 C   0  0  0  0  0  0  0  0  0  0  0  0
   58.0369   -3.2992  -14.3323 C   0  0  0  0  0  0  0  0  0  0  0  0
  8  9  2  0  0  0
  9 10  1  0  0  0
 10 11  1  0  0  0
 11 12  1  0  0  0
 12 13  1  0  0  0
 13 14  1  0  0  0
 13 16  1  0  0  0
 16 17  2  0  0  0
 17 18  1  0  0  0
 18 19  2  0  0  0
 19 20  1  0  0  0
 20 21  2  0  0  0
 10  1  1  0  0  0
  1  2  2  0  0  0
  2  3  1  0  0  0
  3 22  1  0  0  0
 22 24  1  0  0  0
 24 25  2  0  0  0
 25 26  1  0  0  0
 26 27  2  0  0  0
 27 28  1  0  0  0
 28 29  2  0  0  0
 29 30  1  0  0  0
 30 31  2  0  0  0
 31 32  1  0  0  0
 32 33  2  0  0  0
  3  4  2  0  0  0
  4  5  1  0  0  0
  5  6  2  0  0  0
  6  7  1  0  0  0
 14  9  1  0  0  0
 21 16  1  0  0  0
  6  1  1  0  0  0
 33 24  1  0  0  0
 32 27  1  0  0  0
 14 15  1  0  0  0
 22 23  1  0  0  0
M  END
> <minimizedAffinity>
-9.95106

> <CNNscore>
0.3757357299

> <CNNaffinity>
6.8061838150

> <CNN_VS>
2.5573265553

> <CNNaffinity_variance>
0.1182444468

$$$$
[H]c1nc(N([H])c2c([H])c([H])c3c([H])c([H])c([H])c([H])c3c2[H])nc(N2C(=O)N([H])C([H])(c3c([H])c([H])c([H])c([H])c3[H])C([H])([H])C2([H])[H])c1Cl


 33 37  0  0  0  0  0  0  0  0999 V2000
   54.5450   -4.2114   -8.9248 C   0  0  0  0  0  0  0  0  0  0  0  0
   54.6680   -4.0907  -10.2286 N   0  0  0  0  0  0  0  0  0  0  0  0
   55.8761   -4.1885  -10.8507 C   0  0  0  0  0  0  0  0  0  0  0  0
   56.9171   -4.4134  -10.0513 N   0  0  0  0  0  0  0  0  0  0  0  0
   56.8515   -4.5451   -8.7164 C   0  0  0  0  0  0  0  0  0  0  0  0
   55.6175   -4.4421   -8.1114 C   0  0  0  0  0  0  0  0  0  0  0  0
   55.3937   -4.5930   -6.3845 Cl  0  0  0  0  0  0  0  0  0  0  0  0
   53.0375   -6.4084   -7.9721 O   0  0  0  0  0  0  0  0  0  0  0  0
   52.7013   -5.2248   -7.6918 C   0  0  0  0  0  0  0  0  0  0  0  0
   53.2638   -4.0992   -8.3507 N   0  0  0  0  0  0  0  0  0  0  0  0
   52.5425   -2.8471   -8.4437 C   0  0  0  0  0  0  0  0  0  0  0  0
   51.1811   -2.9404   -7.7845 C   0  0  0  0  0  0  0  0  0  0  0  0
   51.3561   -3.6079   -6.4609 C   0  0  0  0  0  0  0  0  0  0  0  0
   51.7273   -4.9881   -6.6854 N   0  0  0  0  0  0  0  0  0  0  0  0
   51.3276   -5.7973   -6.1608 H   0  0  0  0  0  0  0  0  0  0  0  0
   50.1550   -3.6083   -5.6064 C   0  0  0  0  0  0  0  0  0  0  0  0
   50.0725   -4.6114   -4.6481 C   0  0  0  0  0  0  0  0  0  0  0  0
   49.0034   -4.7272   -3.7867 C   0  0  0  0  0  0  0  0  0  0  0  0
   47.9731   -3.8172   -3.8730 C   0  0  0  0  0  0  0  0  0  0  0  0
   48.0587   -2.8269   -4.8221 C   0  0  0  0  0  0  0  0  0  0  0  0
   49.1284   -2.7037   -5.6903 C   0  0  0  0  0  0  0  0  0  0  0  0
   55.9101   -4.0198  -12.2481 N   0  0  0  0  0  0  0  0  0  0  0  0
   55.0051   -4.0337  -12.8162 H   0  0  0  0  0  0  0  0  0  0  0  0
   57.0862   -3.8304  -12.9971 C   0  0  0  0  0  0  0  0  0  0  0  0
   58.3244   -3.8517  -12.3057 C   0  0  0  0  0  0  0  0  0  0  0  0
   59.4549   -3.6419  -13.0230 C   0  0  0  0  0  0  0  0  0  0  0  0
   59.4846   -3.4092  -14.3782 C   0  0  0  0  0  0  0  0  0  0  0  0
   60.6729   -3.2050  -15.0415 C   0  0  0  0  0  0  0  0  0  0  0  0
   60.6531   -2.9748  -16.4063 C   0  0  0  0  0  0  0  0  0  0  0  0
   59.4160   -2.9590  -17.0588 C   0  0  0  0  0  0  0  0  0  0  0  0
   58.2295   -3.1656  -16.3800 C   0  0  0  0  0  0  0  0  0  0  0  0
   58.2660   -3.3914  -15.0356 C   0  0  0  0  0  0  0  0  0  0  0  0
   57.0711   -3.6011  -14.3462 C   0  0  0  0  0  0  0  0  0  0  0  0
  8  9  2  0  0  0
  9 10  1  0  0  0
 10 11  1  0  0  0
 11 12  1  0  0  0
 12 13  1  0  0  0
 13 14  1  0  0  0
 13 16  1  0  0  0
 16 17  2  0  0  0
 17 18  1  0  0  0
 18 19  2  0  0  0
 19 20  1  0  0  0
 20 21  2  0  0  0
 10  1  1  0  0  0
  1  2  2  0  0  0
  2  3  1  0  0  0
  3 22  1  0  0  0
 22 24  1  0  0  0
 24 25  2  0  0  0
 25 26  1  0  0  0
 26 27  2  0  0  0
 27 28  1  0  0  0
 28 29  2  0  0  0
 29 30  1  0  0  0
 30 31  2  0  0  0
 31 32  1  0  0  0
 32 33  2  0  0  0
  3  4  2  0  0  0
  4  5  1  0  0  0
  5  6  2  0  0  0
  6  7  1  0  0  0
 14  9  1  0  0  0
 21 16  1  0  0  0
  6  1  1  0  0  0
 33 24  1  0  0  0
 32 27  1  0  0  0
 14 15  1  0  0  0
 22 23  1  0  0  0
M  END
> <minimizedAffinity>
-9.96148

> <CNNscore>
0.2744631171

> <CNNaffinity>
6.6813383102

> <CNN_VS>
1.8337808847

> <CNNaffinity_variance>
0.0600855760

$$$$
[H]c1nc(N([H])c2c([H])c([H])c3c([H])c([H])c([H])c([H])c3c2[H])nc(N2C(=O)N([H])C([H])(c3c([H])c([H])c([H])c([H])c3[H])C([H])([H])C2([H])[H])c1Cl


 33 37  0  0  0  0  0  0  0  0999 V2000
   56.4768   -4.3382   -9.7873 C   0  0  0  0  0  0  0  0  0  0  0  0
   55.2493   -3.8889   -9.9325 N   0  0  0  0  0  0  0  0  0  0  0  0
   54.3868   -3.7961   -8.8820 C   0  0  0  0  0  0  0  0  0  0  0  0
   54.8705   -4.1897   -7.7054 N   0  0  0  0  0  0  0  0  0  0  0  0
   56.1127   -4.6560   -7.4979 C   0  0  0  0  0  0  0  0  0  0  0  0
   56.9658   -4.7400   -8.5771 C   0  0  0  0  0  0  0  0  0  0  0  0
   58.6060   -5.3292   -8.4443 Cl  0  0  0  0  0  0  0  0  0  0  0  0
   55.5334   -4.3819  -12.4546 O   0  0  0  0  0  0  0  0  0  0  0  0
   56.7540   -4.1812  -12.2049 C   0  0  0  0  0  0  0  0  0  0  0  0
   57.3130   -4.4057  -10.9186 N   0  0  0  0  0  0  0  0  0  0  0  0
   58.7202   -4.7051  -10.7545 C   0  0  0  0  0  0  0  0  0  0  0  0
   59.4370   -4.7525  -12.0889 C   0  0  0  0  0  0  0  0  0  0  0  0
   59.0116   -3.5614  -12.8817 C   0  0  0  0  0  0  0  0  0  0  0  0
   57.6164   -3.7145  -13.2326 N   0  0  0  0  0  0  0  0  0  0  0  0
   57.2210   -3.5058  -14.1758 H   0  0  0  0  0  0  0  0  0  0  0  0
   59.7606   -3.3543  -14.1343 C   0  0  0  0  0  0  0  0  0  0  0  0
   61.1464   -3.3292  -14.0347 C   0  0  0  0  0  0  0  0  0  0  0  0
   61.9647   -3.1421  -15.1273 C   0  0  0  0  0  0  0  0  0  0  0  0
   61.3939   -2.9728  -16.3694 C   0  0  0  0  0  0  0  0  0  0  0  0
   60.0230   -2.9982  -16.4634 C   0  0  0  0  0  0  0  0  0  0  0  0
   59.1948   -3.1857  -15.3715 C   0  0  0  0  0  0  0  0  0  0  0  0
   53.0849   -3.3269   -9.1415 N   0  0  0  0  0  0  0  0  0  0  0  0
   52.8113   -3.0081  -10.1240 H   0  0  0  0  0  0  0  0  0  0  0  0
   52.0670   -3.2325   -8.1745 C   0  0  0  0  0  0  0  0  0  0  0  0
   51.2143   -2.0999   -8.2164 C   0  0  0  0  0  0  0  0  0  0  0  0
   50.2515   -1.9955   -7.2684 C   0  0  0  0  0  0  0  0  0  0  0  0
   50.0437   -2.9141   -6.2661 C   0  0  0  0  0  0  0  0  0  0  0  0
   49.0435   -2.7422   -5.3366 C   0  0  0  0  0  0  0  0  0  0  0  0
   48.8721   -3.6937   -4.3460 C   0  0  0  0  0  0  0  0  0  0  0  0
   49.7298   -4.7986   -4.3314 C   0  0  0  0  0  0  0  0  0  0  0  0
   50.7306   -4.9587   -5.2715 C   0  0  0  0  0  0  0  0  0  0  0  0
   50.8864   -4.0126   -6.2411 C   0  0  0  0  0  0  0  0  0  0  0  0
   51.8948   -4.1701   -7.1927 C   0  0  0  0  0  0  0  0  0  0  0  0
  8  9  2  0  0  0
  9 10  1  0  0  0
 10 11  1  0  0  0
 11 12  1  0  0  0
 12 13  1  0  0  0
 13 14  1  0  0  0
 13 16  1  0  0  0
 16 17  2  0  0  0
 17 18  1  0  0  0
 18 19  2  0  0  0
 19 20  1  0  0  0
 20 21  2  0  0  0
 10  1  1  0  0  0
  1  2  2  0  0  0
  2  3  1  0  0  0
  3 22  1  0  0  0
 22 24  1  0  0  0
 24 25  2  0  0  0
 25 26  1  0  0  0
 26 27  2  0  0  0
 27 28  1  0  0  0
 28 29  2  0  0  0
 29 30  1  0  0  0
 30 31  2  0  0  0
 31 32  1  0  0  0
 32 33  2  0  0  0
  3  4  2  0  0  0
  4  5  1  0  0  0
  5  6  2  0  0  0
  6  7  1  0  0  0
 14  9  1  0  0  0
 21 16  1  0  0  0
  6  1  1  0  0  0
 33 24  1  0  0  0
 32 27  1  0  0  0
 14 15  1  0  0  0
 22 23  1  0  0  0
M  END
> <minimizedAffinity>
-10.07071

> <CNNscore>
0.2507825196

> <CNNaffinity>
6.5562372208

> <CNN_VS>
1.6441897154

> <CNNaffinity_variance>
0.1476810724

$$$$
[H]C1=C(OC([H])([H])[H])c2c([H])c(OC([H])([H])[H])c(OC([H])([H])[H])c([H])c2OC([H])([H])C2(C([H])([H])c3c([H])c([H])c([H])c([H])c3[H])C(=O)N12


 27 30  0  0  0  0  0  0  0  0999 V2000
   57.0259   -4.2159  -10.4878 C   0  0  0  0  0  0  0  0  0  0  0  0
   55.8750   -3.4584  -10.4292 C   0  0  0  0  0  0  0  0  0  0  0  0
   55.0194   -3.6269   -9.3615 C   0  0  0  0  0  0  0  0  0  0  0  0
   53.9511   -2.7594   -9.5373 O   0  0  0  0  0  0  0  0  0  0  0  0
   52.8172   -2.2928   -8.8826 C   0  0  0  0  0  0  0  0  0  0  0  0
   51.9810   -3.2988   -8.1987 C   0  0  0  0  0  0  0  0  0  0  0  0
   51.3150   -2.8493   -6.9448 C   0  0  0  0  0  0  0  0  0  0  0  0
   50.4718   -2.2134   -6.2637 O   0  0  0  0  0  0  0  0  0  0  0  0
   52.4268   -3.7548   -6.9352 N   0  0  0  0  0  0  0  0  0  0  0  0
   53.4897   -4.6476   -6.5561 C   0  0  0  0  0  0  0  0  0  0  0  0
   54.6442   -4.9667   -7.1216 C   0  0  0  0  0  0  0  0  0  0  0  0
   55.2953   -4.5351   -8.3586 C   0  0  0  0  0  0  0  0  0  0  0  0
   56.4507   -5.3048   -8.4046 C   0  0  0  0  0  0  0  0  0  0  0  0
   57.2877   -5.1252   -9.4696 C   0  0  0  0  0  0  0  0  0  0  0  0
   57.4521   -3.9948  -12.8591 C   0  0  0  0  0  0  0  0  0  0  0  0
   57.9325   -4.0945  -11.5388 O   0  0  0  0  0  0  0  0  0  0  0  0
   55.3922   -5.8892   -6.4130 O   0  0  0  0  0  0  0  0  0  0  0  0
   55.9359   -5.6799   -5.1488 C   0  0  0  0  0  0  0  0  0  0  0  0
   58.4486   -5.8609   -9.5684 O   0  0  0  0  0  0  0  0  0  0  0  0
   59.5092   -5.5875   -8.6780 C   0  0  0  0  0  0  0  0  0  0  0  0
   51.0599   -4.1577   -9.0438 C   0  0  0  0  0  0  0  0  0  0  0  0
   50.7266   -5.4528   -8.3962 C   0  0  0  0  0  0  0  0  0  0  0  0
   51.5535   -6.5493   -8.5321 C   0  0  0  0  0  0  0  0  0  0  0  0
   51.2516   -7.7711   -7.9306 C   0  0  0  0  0  0  0  0  0  0  0  0
   50.1012   -7.9122   -7.1746 C   0  0  0  0  0  0  0  0  0  0  0  0
   49.2638   -6.8000   -7.0376 C   0  0  0  0  0  0  0  0  0  0  0  0
   49.5819   -5.6023   -7.6408 C   0  0  0  0  0  0  0  0  0  0  0  0
 15 16  1  0  0  0
 16  1  1  0  0  0
  1  2  2  0  0  0
  2  3  1  0  0  0
  3  4  1  0  0  0
  4  5  1  0  0  0
  5  6  1  0  0  0
  6 21  1  0  0  0
 21 22  1  0  0  0
 22 23  2  0  0  0
 23 24  1  0  0  0
 24 25  2  0  0  0
 25 26  1  0  0  0
 26 27  2  0  0  0
  6  7  1  0  0  0
  7  8  2  0  0  0
  7  9  1  0  0  0
  9 10  1  0  0  0
 10 11  2  0  0  0
 11 17  1  0  0  0
 17 18  1  0  0  0
 11 12  1  0  0  0
 12 13  1  0  0  0
 13 14  2  0  0  0
 14 19  1  0  0  0
 19 20  1  0  0  0
 14  1  1  0  0  0
 12  3  2  0  0  0
  9  6  1  0  0  0
 27 22  1  0  0  0
M  END
> <minimizedAffinity>
1.09803

> <CNNscore>
0.6200836897

> <CNNaffinity>
6.0768799782

> <CNN_VS>
3.7681741714

> <CNNaffinity_variance>
0.7773464918

$$$$
[H]C1=C(OC([H])([H])[H])c2c([H])c(OC([H])([H])[H])c(OC([H])([H])[H])c([H])c2OC([H])([H])C2(C([H])([H])c3c([H])c([H])c([H])c([H])c3[H])C(=O)N12


 27 30  0  0  0  0  0  0  0  0999 V2000
   54.3506   -5.1742  -10.9237 C   0  0  0  0  0  0  0  0  0  0  0  0
   53.5677   -5.9757  -10.1196 C   0  0  0  0  0  0  0  0  0  0  0  0
   52.9574   -5.4195   -9.0157 C   0  0  0  0  0  0  0  0  0  0  0  0
   52.2372   -6.4224   -8.3831 O   0  0  0  0  0  0  0  0  0  0  0  0
   51.3328   -6.6149   -7.3452 C   0  0  0  0  0  0  0  0  0  0  0  0
   51.6180   -5.9190   -6.0750 C   0  0  0  0  0  0  0  0  0  0  0  0
   50.4305   -5.4579   -5.3035 C   0  0  0  0  0  0  0  0  0  0  0  0
   49.4131   -5.5995   -4.5794 O   0  0  0  0  0  0  0  0  0  0  0  0
   51.2853   -4.5451   -6.0050 N   0  0  0  0  0  0  0  0  0  0  0  0
   51.9040   -3.3766   -6.5726 C   0  0  0  0  0  0  0  0  0  0  0  0
   52.6408   -3.1824   -7.6561 C   0  0  0  0  0  0  0  0  0  0  0  0
   53.1170   -4.0834   -8.7060 C   0  0  0  0  0  0  0  0  0  0  0  0
   53.9026   -3.2643   -9.5069 C   0  0  0  0  0  0  0  0  0  0  0  0
   54.5002   -3.8315  -10.5968 C   0  0  0  0  0  0  0  0  0  0  0  0
   54.2280   -6.1848  -13.1185 C   0  0  0  0  0  0  0  0  0  0  0  0
   54.9950   -5.6734  -12.0537 O   0  0  0  0  0  0  0  0  0  0  0  0
   53.0469   -1.8740   -7.8445 O   0  0  0  0  0  0  0  0  0  0  0  0
   54.2616   -1.4832   -8.4007 C   0  0  0  0  0  0  0  0  0  0  0  0
   55.2909   -3.0677  -11.4275 O   0  0  0  0  0  0  0  0  0  0  0  0
   56.6622   -3.3811  -11.5445 C   0  0  0  0  0  0  0  0  0  0  0  0
   52.6848   -6.4980   -5.1657 C   0  0  0  0  0  0  0  0  0  0  0  0
   53.9941   -5.8089   -5.3040 C   0  0  0  0  0  0  0  0  0  0  0  0
   54.4205   -4.8965   -4.3606 C   0  0  0  0  0  0  0  0  0  0  0  0
   55.6465   -4.2418   -4.4793 C   0  0  0  0  0  0  0  0  0  0  0  0
   56.4727   -4.4963   -5.5598 C   0  0  0  0  0  0  0  0  0  0  0  0
   56.0393   -5.4214   -6.5155 C   0  0  0  0  0  0  0  0  0  0  0  0
   54.8239   -6.0567   -6.3780 C   0  0  0  0  0  0  0  0  0  0  0  0
 15 16  1  0  0  0
 16  1  1  0  0  0
  1  2  2  0  0  0
  2  3  1  0  0  0
  3  4  1  0  0  0
  4  5  1  0  0  0
  5  6  1  0  0  0
  6 21  1  0  0  0
 21 22  1  0  0  0
 22 23  2  0  0  0
 23 24  1  0  0  0
 24 25  2  0  0  0
 25 26  1  0  0  0
 26 27  2  0  0  0
  6  7  1  0  0  0
  7  8  2  0  0  0
  7  9  1  0  0  0
  9 10  1  0  0  0
 10 11  2  0  0  0
 11 17  1  0  0  0
 17 18  1  0  0  0
 11 12  1  0  0  0
 12 13  1  0  0  0
 13 14  2  0  0  0
 14 19  1  0  0  0
 19 20  1  0  0  0
 14  1  1  0  0  0
 12  3  2  0  0  0
  9  6  1  0  0  0
 27 22  1  0  0  0
M  END
> <minimizedAffinity>
13.02764

> <CNNscore>
0.4818550646

> <CNNaffinity>
5.6303596497

> <CNN_VS>
2.7130172253

> <CNNaffinity_variance>
0.6382218599

$$$$
[H]C1=C(OC([H])([H])[H])c2c([H])c(OC([H])([H])[H])c(OC([H])([H])[H])c([H])c2OC([H])([H])C2(C([H])([H])c3c([H])c([H])c([H])c([H])c3[H])C(=O)N12


 27 30  0  0  0  0  0  0  0  0999 V2000
   56.4478   -3.7564  -12.2874 C   0  0  0  0  0  0  0  0  0  0  0  0
   55.6480   -3.6395  -11.1700 C   0  0  0  0  0  0  0  0  0  0  0  0
   56.1117   -4.1216   -9.9646 C   0  0  0  0  0  0  0  0  0  0  0  0
   55.1314   -3.8852   -9.0118 O   0  0  0  0  0  0  0  0  0  0  0  0
   54.9102   -3.9730   -7.6423 C   0  0  0  0  0  0  0  0  0  0  0  0
   55.3669   -5.2059   -6.9712 C   0  0  0  0  0  0  0  0  0  0  0  0
   55.8632   -5.0433   -5.5764 C   0  0  0  0  0  0  0  0  0  0  0  0
   55.7532   -4.8422   -4.3408 O   0  0  0  0  0  0  0  0  0  0  0  0
   56.7474   -5.3039   -6.6748 N   0  0  0  0  0  0  0  0  0  0  0  0
   57.8939   -5.5508   -7.5084 C   0  0  0  0  0  0  0  0  0  0  0  0
   58.1458   -5.3176   -8.7878 C   0  0  0  0  0  0  0  0  0  0  0  0
   57.3542   -4.7147   -9.8604 C   0  0  0  0  0  0  0  0  0  0  0  0
   58.1704   -4.8393  -10.9775 C   0  0  0  0  0  0  0  0  0  0  0  0
   57.6957   -4.3563  -12.1641 C   0  0  0  0  0  0  0  0  0  0  0  0
   56.0101   -4.1762  -14.6296 C   0  0  0  0  0  0  0  0  0  0  0  0
   56.0394   -3.2901  -13.5352 O   0  0  0  0  0  0  0  0  0  0  0  0
   59.4019   -5.7181   -9.2054 O   0  0  0  0  0  0  0  0  0  0  0  0
   60.3679   -6.3054   -8.3934 C   0  0  0  0  0  0  0  0  0  0  0  0
   58.4614   -4.4522  -13.3057 O   0  0  0  0  0  0  0  0  0  0  0  0
   59.6458   -3.6903  -13.4005 C   0  0  0  0  0  0  0  0  0  0  0  0
   54.5233   -6.4573   -7.1218 C   0  0  0  0  0  0  0  0  0  0  0  0
   53.1228   -6.2651   -6.6638 C   0  0  0  0  0  0  0  0  0  0  0  0
   52.0693   -6.3248   -7.5532 C   0  0  0  0  0  0  0  0  0  0  0  0
   50.7503   -6.1448   -7.1365 C   0  0  0  0  0  0  0  0  0  0  0  0
   50.4657   -5.8992   -5.8048 C   0  0  0  0  0  0  0  0  0  0  0  0
   51.5345   -5.8388   -4.9042 C   0  0  0  0  0  0  0  0  0  0  0  0
   52.8301   -6.0197   -5.3381 C   0  0  0  0  0  0  0  0  0  0  0  0
 15 16  1  0  0  0
 16  1  1  0  0  0
  1  2  2  0  0  0
  2  3  1  0  0  0
  3  4  1  0  0  0
  4  5  1  0  0  0
  5  6  1  0  0  0
  6 21  1  0  0  0
 21 22  1  0  0  0
 22 23  2  0  0  0
 23 24  1  0  0  0
 24 25  2  0  0  0
 25 26  1  0  0  0
 26 27  2  0  0  0
  6  7  1  0  0  0
  7  8  2  0  0  0
  7  9  1  0  0  0
  9 10  1  0  0  0
 10 11  2  0  0  0
 11 17  1  0  0  0
 17 18  1  0  0  0
 11 12  1  0  0  0
 12 13  1  0  0  0
 13 14  2  0  0  0
 14 19  1  0  0  0
 19 20  1  0  0  0
 14  1  1  0  0  0
 12  3  2  0  0  0
  9  6  1  0  0  0
 27 22  1  0  0  0
M  END
> <minimizedAffinity>
-7.60111

> <CNNscore>
0.4210717082

> <CNNaffinity>
5.8471112251

> <CNN_VS>
2.4620530605

> <CNNaffinity_variance>
0.1838466376

$$$$
[H]C1=C(OC([H])([H])[H])c2c([H])c(OC([H])([H])[H])c(OC([H])([H])[H])c([H])c2OC([H])([H])C2(C([H])([H])c3c([H])c([H])c([H])c([H])c3[H])C(=O)N12


 27 30  0  0  0  0  0  0  0  0999 V2000
   55.2931   -5.3181  -10.2598 C   0  0  0  0  0  0  0  0  0  0  0  0
   56.3689   -5.3408   -9.3971 C   0  0  0  0  0  0  0  0  0  0  0  0
   56.1905   -5.8326   -8.1216 C   0  0  0  0  0  0  0  0  0  0  0  0
   57.4088   -5.7469   -7.4634 O   0  0  0  0  0  0  0  0  0  0  0  0
   58.0237   -6.1170   -6.2730 C   0  0  0  0  0  0  0  0  0  0  0  0
   57.2557   -5.9015   -5.0310 C   0  0  0  0  0  0  0  0  0  0  0  0
   57.4663   -6.9059   -3.9517 C   0  0  0  0  0  0  0  0  0  0  0  0
   58.1032   -7.4772   -3.0312 O   0  0  0  0  0  0  0  0  0  0  0  0
   56.2561   -6.8536   -4.7189 N   0  0  0  0  0  0  0  0  0  0  0  0
   54.9482   -7.0895   -5.2705 C   0  0  0  0  0  0  0  0  0  0  0  0
   54.4202   -6.8697   -6.4653 C   0  0  0  0  0  0  0  0  0  0  0  0
   54.9615   -6.2987   -7.6988 C   0  0  0  0  0  0  0  0  0  0  0  0
   53.8692   -6.2818   -8.5569 C   0  0  0  0  0  0  0  0  0  0  0  0
   54.0633   -5.7912   -9.8173 C   0  0  0  0  0  0  0  0  0  0  0  0
   55.0519   -5.6658  -12.6419 C   0  0  0  0  0  0  0  0  0  0  0  0
   55.4056   -4.8342  -11.5615 O   0  0  0  0  0  0  0  0  0  0  0  0
   53.0962   -7.2510   -6.5842 O   0  0  0  0  0  0  0  0  0  0  0  0
   52.4267   -8.1073   -5.7146 C   0  0  0  0  0  0  0  0  0  0  0  0
   53.0162   -5.7498  -10.7120 O   0  0  0  0  0  0  0  0  0  0  0  0
   51.8215   -5.0984  -10.3367 C   0  0  0  0  0  0  0  0  0  0  0  0
   57.1744   -4.4927   -4.4752 C   0  0  0  0  0  0  0  0  0  0  0  0
   57.5668   -4.4157   -3.0441 C   0  0  0  0  0  0  0  0  0  0  0  0
   56.8983   -3.5858   -2.1672 C   0  0  0  0  0  0  0  0  0  0  0  0
   57.2575   -3.5031   -0.8219 C   0  0  0  0  0  0  0  0  0  0  0  0
   58.3056   -4.2614   -0.3307 C   0  0  0  0  0  0  0  0  0  0  0  0
   58.9825   -5.1022   -1.2206 C   0  0  0  0  0  0  0  0  0  0  0  0
   58.6105   -5.1681   -2.5460 C   0  0  0  0  0  0  0  0  0  0  0  0
 15 16  1  0  0  0
 16  1  1  0  0  0
  1  2  2  0  0  0
  2  3  1  0  0  0
  3  4  1  0  0  0
  4  5  1  0  0  0
  5  6  1  0  0  0
  6 21  1  0  0  0
 21 22  1  0  0  0
 22 23  2  0  0  0
 23 24  1  0  0  0
 24 25  2  0  0  0
 25 26  1  0  0  0
 26 27  2  0  0  0
  6  7  1  0  0  0
  7  8  2  0  0  0
  7  9  1  0  0  0
  9 10  1  0  0  0
 10 11  2  0  0  0
 11 17  1  0  0  0
 17 18  1  0  0  0
 11 12  1  0  0  0
 12 13  1  0  0  0
 13 14  2  0  0  0
 14 19  1  0  0  0
 19 20  1  0  0  0
 14  1  1  0  0  0
 12  3  2  0  0  0
  9  6  1  0  0  0
 27 22  1  0  0  0
M  END
> <minimizedAffinity>
27.60588

> <CNNscore>
0.4106758535

> <CNNaffinity>
4.9898924828

> <CNN_VS>
2.0492284298

> <CNNaffinity_variance>
1.7621189356

$$$$
[H]C1=C(OC([H])([H])[H])c2c([H])c(OC([H])([H])[H])c(OC([H])([H])[H])c([H])c2OC([H])([H])C2(C([H])([H])c3c([H])c([H])c([H])c([H])c3[H])C(=O)N12


 27 30  0  0  0  0  0  0  0  0999 V2000
   54.6414   -5.3399   -7.6117 C   0  0  0  0  0  0  0  0  0  0  0  0
   53.8432   -5.9049   -6.6392 C   0  0  0  0  0  0  0  0  0  0  0  0
   52.6589   -5.2837   -6.3047 C   0  0  0  0  0  0  0  0  0  0  0  0
   52.0510   -6.0421   -5.3147 O   0  0  0  0  0  0  0  0  0  0  0  0
   50.8670   -6.1284   -4.5917 C   0  0  0  0  0  0  0  0  0  0  0  0
   50.3148   -4.8652   -4.0638 C   0  0  0  0  0  0  0  0  0  0  0  0
   48.8292   -4.7731   -4.0156 C   0  0  0  0  0  0  0  0  0  0  0  0
   47.6817   -5.0377   -3.5766 O   0  0  0  0  0  0  0  0  0  0  0  0
   49.6077   -4.0424   -4.9726 N   0  0  0  0  0  0  0  0  0  0  0  0
   50.0527   -3.1884   -6.0418 C   0  0  0  0  0  0  0  0  0  0  0  0
   51.1171   -3.2100   -6.8299 C   0  0  0  0  0  0  0  0  0  0  0  0
   52.2634   -4.1144   -6.9235 C   0  0  0  0  0  0  0  0  0  0  0  0
   53.0572   -3.5341   -7.9046 C   0  0  0  0  0  0  0  0  0  0  0  0
   54.2276   -4.1626   -8.2241 C   0  0  0  0  0  0  0  0  0  0  0  0
   57.0518   -5.4461   -7.4329 C   0  0  0  0  0  0  0  0  0  0  0  0
   55.8499   -5.9165   -7.9966 O   0  0  0  0  0  0  0  0  0  0  0  0
   51.1675   -2.1799   -7.7511 O   0  0  0  0  0  0  0  0  0  0  0  0
   50.1614   -1.2410   -7.9606 C   0  0  0  0  0  0  0  0  0  0  0  0
   55.0555   -3.6331   -9.1900 O   0  0  0  0  0  0  0  0  0  0  0  0
   54.8382   -3.9788  -10.5412 C   0  0  0  0  0  0  0  0  0  0  0  0
   50.9523   -4.2685   -2.8237 C   0  0  0  0  0  0  0  0  0  0  0  0
   51.7122   -5.2687   -2.0299 C   0  0  0  0  0  0  0  0  0  0  0  0
   51.1319   -6.4600   -1.6445 C   0  0  0  0  0  0  0  0  0  0  0  0
   51.8337   -7.4067   -0.8981 C   0  0  0  0  0  0  0  0  0  0  0  0
   53.1442   -7.1688   -0.5228 C   0  0  0  0  0  0  0  0  0  0  0  0
   53.7313   -5.9608   -0.9140 C   0  0  0  0  0  0  0  0  0  0  0  0
   53.0190   -5.0397   -1.6515 C   0  0  0  0  0  0  0  0  0  0  0  0
 15 16  1  0  0  0
 16  1  1  0  0  0
  1  2  2  0  0  0
  2  3  1  0  0  0
  3  4  1  0  0  0
  4  5  1  0  0  0
  5  6  1  0  0  0
  6 21  1  0  0  0
 21 22  1  0  0  0
 22 23  2  0  0  0
 23 24  1  0  0  0
 24 25  2  0  0  0
 25 26  1  0  0  0
 26 27  2  0  0  0
  6  7  1  0  0  0
  7  8  2  0  0  0
  7  9  1  0  0  0
  9 10  1  0  0  0
 10 11  2  0  0  0
 11 17  1  0  0  0
 17 18  1  0  0  0
 11 12  1  0  0  0
 12 13  1  0  0  0
 13 14  2  0  0  0
 14 19  1  0  0  0
 19 20  1  0  0  0
 14  1  1  0  0  0
 12  3  2  0  0  0
  9  6  1  0  0  0
 27 22  1  0  0  0
M  END
> <minimizedAffinity>
-5.84715

> <CNNscore>
0.3941705227

> <CNNaffinity>
6.3613328934

> <CNN_VS>
2.5074498653

> <CNNaffinity_variance>
0.6202083826

$$$$
[H]C1=C(OC([H])([H])[H])c2c([H])c(OC([H])([H])[H])c(OC([H])([H])[H])c([H])c2OC([H])([H])C2(C([H])([H])c3c([H])c([H])c([H])c([H])c3[H])C(=O)N12


 27 30  0  0  0  0  0  0  0  0999 V2000
   63.0504   -7.8963  -10.6124 C   0  0  0  0  0  0  0  0  0  0  0  0
   62.9102   -6.6640  -11.2156 C   0  0  0  0  0  0  0  0  0  0  0  0
   63.1939   -6.5431  -12.5592 C   0  0  0  0  0  0  0  0  0  0  0  0
   62.9766   -5.2207  -12.9178 O   0  0  0  0  0  0  0  0  0  0  0  0
   62.9384   -4.3949  -14.0353 C   0  0  0  0  0  0  0  0  0  0  0  0
   64.0227   -4.5601  -15.0233 C   0  0  0  0  0  0  0  0  0  0  0  0
   63.6456   -4.3421  -16.4475 C   0  0  0  0  0  0  0  0  0  0  0  0
   63.3235   -3.6597  -17.4525 O   0  0  0  0  0  0  0  0  0  0  0  0
   63.9147   -5.6486  -15.9215 N   0  0  0  0  0  0  0  0  0  0  0  0
   64.1084   -7.0633  -15.7443 C   0  0  0  0  0  0  0  0  0  0  0  0
   63.9895   -7.8657  -14.6972 C   0  0  0  0  0  0  0  0  0  0  0  0
   63.6127   -7.6281  -13.3035 C   0  0  0  0  0  0  0  0  0  0  0  0
   63.7583   -8.8751  -12.7092 C   0  0  0  0  0  0  0  0  0  0  0  0
   63.4730   -8.9775  -11.3770 C   0  0  0  0  0  0  0  0  0  0  0  0
   62.1540   -7.0590   -8.5270 C   0  0  0  0  0  0  0  0  0  0  0  0
   62.7801   -8.0867   -9.2590 O   0  0  0  0  0  0  0  0  0  0  0  0
   64.2747   -9.1934  -14.9589 O   0  0  0  0  0  0  0  0  0  0  0  0
   64.7973   -9.6813  -16.1531 C   0  0  0  0  0  0  0  0  0  0  0  0
   63.5994  -10.1896  -10.7339 O   0  0  0  0  0  0  0  0  0  0  0  0
   64.8863  -10.7465  -10.5714 C   0  0  0  0  0  0  0  0  0  0  0  0
   65.3781   -3.9582  -14.7057 C   0  0  0  0  0  0  0  0  0  0  0  0
   65.2830   -2.5689  -14.1872 C   0  0  0  0  0  0  0  0  0  0  0  0
   65.7540   -2.2450  -12.9311 C   0  0  0  0  0  0  0  0  0  0  0  0
   65.6695   -0.9452  -12.4320 C   0  0  0  0  0  0  0  0  0  0  0  0
   65.1042    0.0610  -13.1954 C   0  0  0  0  0  0  0  0  0  0  0  0
   64.6271   -0.2686  -14.4685 C   0  0  0  0  0  0  0  0  0  0  0  0
   64.7209   -1.5598  -14.9416 C   0  0  0  0  0  0  0  0  0  0  0  0
 15 16  1  0  0  0
 16  1  1  0  0  0
  1  2  2  0  0  0
  2  3  1  0  0  0
  3  4  1  0  0  0
  4  5  1  0  0  0
  5  6  1  0  0  0
  6 21  1  0  0  0
 21 22  1  0  0  0
 22 23  2  0  0  0
 23 24  1  0  0  0
 24 25  2  0  0  0
 25 26  1  0  0  0
 26 27  2  0  0  0
  6  7  1  0  0  0
  7  8  2  0  0  0
  7  9  1  0  0  0
  9 10  1  0  0  0
 10 11  2  0  0  0
 11 17  1  0  0  0
 17 18  1  0  0  0
 11 12  1  0  0  0
 12 13  1  0  0  0
 13 14  2  0  0  0
 14 19  1  0  0  0
 19 20  1  0  0  0
 14  1  1  0  0  0
 12  3  2  0  0  0
  9  6  1  0  0  0
 27 22  1  0  0  0
M  END
> <minimizedAffinity>
-2.43284

> <CNNscore>
0.3911361098

> <CNNaffinity>
3.8019328117

> <CNN_VS>
1.4870731831

> <CNNaffinity_variance>
0.1997695118

$$$$
[H]C1=C(OC([H])([H])[H])c2c([H])c(OC([H])([H])[H])c(OC([H])([H])[H])c([H])c2OC([H])([H])C2(C([H])([H])c3c([H])c([H])c([H])c([H])c3[H])C(=O)N12


 27 30  0  0  0  0  0  0  0  0999 V2000
   49.7109   -3.2004   -6.6470 C   0  0  0  0  0  0  0  0  0  0  0  0
   50.7512   -3.9175   -7.1998 C   0  0  0  0  0  0  0  0  0  0  0  0
   51.5293   -4.7046   -6.3779 C   0  0  0  0  0  0  0  0  0  0  0  0
   52.4938   -5.3131   -7.1680 O   0  0  0  0  0  0  0  0  0  0  0  0
   53.5034   -6.2662   -7.1014 C   0  0  0  0  0  0  0  0  0  0  0  0
   54.3971   -6.2094   -5.9279 C   0  0  0  0  0  0  0  0  0  0  0  0
   54.8963   -7.5193   -5.4248 C   0  0  0  0  0  0  0  0  0  0  0  0
   55.5955   -8.5631   -5.4542 O   0  0  0  0  0  0  0  0  0  0  0  0
   53.9073   -6.7581   -4.7187 N   0  0  0  0  0  0  0  0  0  0  0  0
   52.9343   -6.2813   -3.7718 C   0  0  0  0  0  0  0  0  0  0  0  0
   51.8788   -5.4892   -3.8849 C   0  0  0  0  0  0  0  0  0  0  0  0
   51.2846   -4.7849   -5.0214 C   0  0  0  0  0  0  0  0  0  0  0  0
   50.2404   -4.0681   -4.4510 C   0  0  0  0  0  0  0  0  0  0  0  0
   49.4791   -3.2931   -5.2797 C   0  0  0  0  0  0  0  0  0  0  0  0
   49.4270   -1.2403   -8.0366 C   0  0  0  0  0  0  0  0  0  0  0  0
   48.8869   -2.3863   -7.4213 O   0  0  0  0  0  0  0  0  0  0  0  0
   51.1935   -5.2776   -2.7024 O   0  0  0  0  0  0  0  0  0  0  0  0
   51.6854   -5.5531   -1.4298 C   0  0  0  0  0  0  0  0  0  0  0  0
   48.4297   -2.5599   -4.7699 O   0  0  0  0  0  0  0  0  0  0  0  0
   47.3268   -3.2416   -4.2119 C   0  0  0  0  0  0  0  0  0  0  0  0
   55.4838   -5.1516   -5.9064 C   0  0  0  0  0  0  0  0  0  0  0  0
   56.0470   -4.8786   -7.2541 C   0  0  0  0  0  0  0  0  0  0  0  0
   55.3953   -4.0470   -8.1419 C   0  0  0  0  0  0  0  0  0  0  0  0
   55.9125   -3.7836   -9.4104 C   0  0  0  0  0  0  0  0  0  0  0  0
   57.1059   -4.3579   -9.8114 C   0  0  0  0  0  0  0  0  0  0  0  0
   57.7655   -5.2008   -8.9106 C   0  0  0  0  0  0  0  0  0  0  0  0
   57.2361   -5.4470   -7.6621 C   0  0  0  0  0  0  0  0  0  0  0  0
 15 16  1  0  0  0
 16  1  1  0  0  0
  1  2  2  0  0  0
  2  3  1  0  0  0
  3  4  1  0  0  0
  4  5  1  0  0  0
  5  6  1  0  0  0
  6 21  1  0  0  0
 21 22  1  0  0  0
 22 23  2  0  0  0
 23 24  1  0  0  0
 24 25  2  0  0  0
 25 26  1  0  0  0
 26 27  2  0  0  0
  6  7  1  0  0  0
  7  8  2  0  0  0
  7  9  1  0  0  0
  9 10  1  0  0  0
 10 11  2  0  0  0
 11 17  1  0  0  0
 17 18  1  0  0  0
 11 12  1  0  0  0
 12 13  1  0  0  0
 13 14  2  0  0  0
 14 19  1  0  0  0
 19 20  1  0  0  0
 14  1  1  0  0  0
 12  3  2  0  0  0
  9  6  1  0  0  0
 27 22  1  0  0  0
M  END
> <minimizedAffinity>
-5.95860

> <CNNscore>
0.3906883001

> <CNNaffinity>
6.2658748627

> <CNN_VS>
2.4480040073

> <CNNaffinity_variance>
0.3686249256

$$$$
[H]C1=C(OC([H])([H])[H])c2c([H])c(OC([H])([H])[H])c(OC([H])([H])[H])c([H])c2OC([H])([H])C2(C([H])([H])c3c([H])c([H])c([H])c([H])c3[H])C(=O)N12


 27 30  0  0  0  0  0  0  0  0999 V2000
   57.5430   -4.6033   -1.9935 C   0  0  0  0  0  0  0  0  0  0  0  0
   58.8156   -5.0619   -2.2621 C   0  0  0  0  0  0  0  0  0  0  0  0
   58.9969   -6.3991   -2.5438 C   0  0  0  0  0  0  0  0  0  0  0  0
   60.3500   -6.6009   -2.7746 O   0  0  0  0  0  0  0  0  0  0  0  0
   61.2414   -7.5807   -3.1958 C   0  0  0  0  0  0  0  0  0  0  0  0
   61.0629   -8.9321   -2.6292 C   0  0  0  0  0  0  0  0  0  0  0  0
   61.3901  -10.0674   -3.5359 C   0  0  0  0  0  0  0  0  0  0  0  0
   62.1512  -10.8314   -4.1812 O   0  0  0  0  0  0  0  0  0  0  0  0
   60.0396   -9.7342   -3.1881 N   0  0  0  0  0  0  0  0  0  0  0  0
   58.6069   -9.6904   -3.0608 C   0  0  0  0  0  0  0  0  0  0  0  0
   57.7535   -8.7092   -2.8091 C   0  0  0  0  0  0  0  0  0  0  0  0
   57.9325   -7.2785   -2.5608 C   0  0  0  0  0  0  0  0  0  0  0  0
   56.6454   -6.8306   -2.2921 C   0  0  0  0  0  0  0  0  0  0  0  0
   56.4833   -5.5026   -2.0149 C   0  0  0  0  0  0  0  0  0  0  0  0
   58.3672   -2.4079   -1.3983 C   0  0  0  0  0  0  0  0  0  0  0  0
   57.2911   -3.2645   -1.7015 O   0  0  0  0  0  0  0  0  0  0  0  0
   56.4276   -9.1005   -2.7708 O   0  0  0  0  0  0  0  0  0  0  0  0
   55.4750   -8.8029   -3.7411 C   0  0  0  0  0  0  0  0  0  0  0  0
   55.2294   -5.0014   -1.7408 O   0  0  0  0  0  0  0  0  0  0  0  0
   54.0958   -5.7657   -2.0921 C   0  0  0  0  0  0  0  0  0  0  0  0
   61.5525   -9.1861   -1.2164 C   0  0  0  0  0  0  0  0  0  0  0  0
   61.4429  -10.6134   -0.8179 C   0  0  0  0  0  0  0  0  0  0  0  0
   62.5609  -11.3405   -0.4633 C   0  0  0  0  0  0  0  0  0  0  0  0
   62.4719  -12.6812   -0.0886 C   0  0  0  0  0  0  0  0  0  0  0  0
   61.2446  -13.3198   -0.0639 C   0  0  0  0  0  0  0  0  0  0  0  0
   60.1119  -12.5816   -0.4236 C   0  0  0  0  0  0  0  0  0  0  0  0
   60.2232  -11.2578   -0.7905 C   0  0  0  0  0  0  0  0  0  0  0  0
 15 16  1  0  0  0
 16  1  1  0  0  0
  1  2  2  0  0  0
  2  3  1  0  0  0
  3  4  1  0  0  0
  4  5  1  0  0  0
  5  6  1  0  0  0
  6 21  1  0  0  0
 21 22  1  0  0  0
 22 23  2  0  0  0
 23 24  1  0  0  0
 24 25  2  0  0  0
 25 26  1  0  0  0
 26 27  2  0  0  0
  6  7  1  0  0  0
  7  8  2  0  0  0
  7  9  1  0  0  0
  9 10  1  0  0  0
 10 11  2  0  0  0
 11 17  1  0  0  0
 17 18  1  0  0  0
 11 12  1  0  0  0
 12 13  1  0  0  0
 13 14  2  0  0  0
 14 19  1  0  0  0
 19 20  1  0  0  0
 14  1  1  0  0  0
 12  3  2  0  0  0
  9  6  1  0  0  0
 27 22  1  0  0  0
M  END
> <minimizedAffinity>
2.22684

> <CNNscore>
0.3836607933

> <CNNaffinity>
4.5519113541

> <CNN_VS>
1.7463898659

> <CNNaffinity_variance>
1.5665315390

$$$$
[H]C1=C(OC([H])([H])[H])c2c([H])c(OC([H])([H])[H])c(OC([H])([H])[H])c([H])c2OC([H])([H])C2(C([H])([H])c3c([H])c([H])c([H])c([H])c3[H])C(=O)N12


 27 30  0  0  0  0  0  0  0  0999 V2000
   53.9894   -3.5254   -9.1277 C   0  0  0  0  0  0  0  0  0  0  0  0
   53.9145   -3.7538   -7.7697 C   0  0  0  0  0  0  0  0  0  0  0  0
   54.9344   -4.4462   -7.1527 C   0  0  0  0  0  0  0  0  0  0  0  0
   54.6231   -4.5408   -5.8040 O   0  0  0  0  0  0  0  0  0  0  0  0
   55.1649   -4.9628   -4.5955 C   0  0  0  0  0  0  0  0  0  0  0  0
   55.8692   -6.2601   -4.5979 C   0  0  0  0  0  0  0  0  0  0  0  0
   57.0388   -6.3685   -3.6822 C   0  0  0  0  0  0  0  0  0  0  0  0
   57.6124   -6.4683   -2.5685 O   0  0  0  0  0  0  0  0  0  0  0  0
   57.1905   -6.2742   -5.1049 N   0  0  0  0  0  0  0  0  0  0  0  0
   57.7057   -6.1992   -6.4463 C   0  0  0  0  0  0  0  0  0  0  0  0
   57.2426   -5.6539   -7.5611 C   0  0  0  0  0  0  0  0  0  0  0  0
   56.0205   -4.9103   -7.8679 C   0  0  0  0  0  0  0  0  0  0  0  0
   56.1092   -4.6876   -9.2362 C   0  0  0  0  0  0  0  0  0  0  0  0
   55.0899   -3.9998   -9.8319 C   0  0  0  0  0  0  0  0  0  0  0  0
   51.9190   -2.2741   -9.0922 C   0  0  0  0  0  0  0  0  0  0  0  0
   52.9930   -2.8327   -9.8121 O   0  0  0  0  0  0  0  0  0  0  0  0
   58.0676   -5.8108   -8.6599 O   0  0  0  0  0  0  0  0  0  0  0  0
   59.4571   -5.7315   -8.6377 C   0  0  0  0  0  0  0  0  0  0  0  0
   55.1238   -3.7492  -11.1864 O   0  0  0  0  0  0  0  0  0  0  0  0
   56.2980   -4.0526  -11.9087 C   0  0  0  0  0  0  0  0  0  0  0  0
   55.0355   -7.5271   -4.5918 C   0  0  0  0  0  0  0  0  0  0  0  0
   53.8999   -7.4635   -3.6356 C   0  0  0  0  0  0  0  0  0  0  0  0
   53.9670   -8.0927   -2.4092 C   0  0  0  0  0  0  0  0  0  0  0  0
   52.9076   -8.0419   -1.5031 C   0  0  0  0  0  0  0  0  0  0  0  0
   51.7512   -7.3505   -1.8184 C   0  0  0  0  0  0  0  0  0  0  0  0
   51.6844   -6.7131   -3.0619 C   0  0  0  0  0  0  0  0  0  0  0  0
   52.7433   -6.7764   -3.9418 C   0  0  0  0  0  0  0  0  0  0  0  0
 15 16  1  0  0  0
 16  1  1  0  0  0
  1  2  2  0  0  0
  2  3  1  0  0  0
  3  4  1  0  0  0
  4  5  1  0  0  0
  5  6  1  0  0  0
  6 21  1  0  0  0
 21 22  1  0  0  0
 22 23  2  0  0  0
 23 24  1  0  0  0
 24 25  2  0  0  0
 25 26  1  0  0  0
 26 27  2  0  0  0
  6  7  1  0  0  0
  7  8  2  0  0  0
  7  9  1  0  0  0
  9 10  1  0  0  0
 10 11  2  0  0  0
 11 17  1  0  0  0
 17 18  1  0  0  0
 11 12  1  0  0  0
 12 13  1  0  0  0
 13 14  2  0  0  0
 14 19  1  0  0  0
 19 20  1  0  0  0
 14  1  1  0  0  0
 12  3  2  0  0  0
  9  6  1  0  0  0
 27 22  1  0  0  0
M  END
> <minimizedAffinity>
-4.65230

> <CNNscore>
0.3494097292

> <CNNaffinity>
5.6629672050

> <CNN_VS>
1.9786958694

> <CNNaffinity_variance>
0.4488716722

$$$$
[H]c1nc(N([H])c2c([H])c([H])c(C(=O)N([H])C3([H])C([H])([H])C([H])([H])N(C([H])([H])[H])C([H])([H])C3([H])[H])c([H])c2OC([H])(C([H])([H])[H])C([H])([H])[H])nc2c1N(C([H])([H])[H])C(=O)[C@@]([H])(C([H])([H])c1c([H])c([H])c([H])c([H])c1[H])N2C1([H])C([H])([H])C([H])([H])C([H])([H])C1([H])[H]


 47 52  0  0  0  0  0  0  0  0999 V2000
   56.1816   -3.4849  -11.6457 C   0  0  0  0  0  0  0  0  0  0  0  0
   55.6792   -3.2929  -12.8611 N   0  0  0  0  0  0  0  0  0  0  0  0
   56.3825   -3.3537  -13.9997 C   0  0  0  0  0  0  0  0  0  0  0  0
   57.7470   -3.6381  -13.9415 C   0  0  0  0  0  0  0  0  0  0  0  0
   58.5301   -3.7121  -15.1273 N   0  0  0  0  0  0  0  0  0  0  0  0
   57.9395   -3.4934  -16.4462 C   0  0  0  0  0  0  0  0  0  0  0  0
   59.9124   -4.0079  -14.9683 C   0  0  0  0  0  0  0  0  0  0  0  0
   60.5501   -4.5053  -15.9358 O   0  0  0  0  0  0  0  0  0  0  0  0
   60.5320   -3.7158  -13.6721 C   0  0  0  0  0  0  0  0  0  0  0  0
   59.7005   -4.1452  -12.5451 N   0  0  0  0  0  0  0  0  0  0  0  0
   58.2979   -3.8426  -12.6954 C   0  0  0  0  0  0  0  0  0  0  0  0
   57.5385   -3.7649  -11.6263 N   0  0  0  0  0  0  0  0  0  0  0  0
   60.2742   -4.7955  -11.4331 C   0  0  0  0  0  0  0  0  0  0  0  0
   61.5209   -5.5888  -11.7466 C   0  0  0  0  0  0  0  0  0  0  0  0
   61.7460   -6.3765  -10.4975 C   0  0  0  0  0  0  0  0  0  0  0  0
   60.5033   -6.2590   -9.6525 C   0  0  0  0  0  0  0  0  0  0  0  0
   59.4297   -5.6736  -10.5961 C   0  0  0  0  0  0  0  0  0  0  0  0
   55.4993   -3.4389  -10.4094 N   0  0  0  0  0  0  0  0  0  0  0  0
   54.6977   -2.7316  -10.3317 H   0  0  0  0  0  0  0  0  0  0  0  0
   54.7072   -4.5633   -8.4378 C   0  0  0  0  0  0  0  0  0  0  0  0
   54.8925   -5.3296   -7.3095 C   0  0  0  0  0  0  0  0  0  0  0  0
   56.1432   -5.8223   -6.9472 C   0  0  0  0  0  0  0  0  0  0  0  0
   57.1913   -5.5130   -7.7629 C   0  0  0  0  0  0  0  0  0  0  0  0
   56.9949   -4.7329   -8.9088 C   0  0  0  0  0  0  0  0  0  0  0  0
   55.7891   -4.2317   -9.2985 C   0  0  0  0  0  0  0  0  0  0  0  0
   56.2456   -6.6155   -5.7511 C   0  0  0  0  0  0  0  0  0  0  0  0
   55.6515   -7.7160   -5.6629 O   0  0  0  0  0  0  0  0  0  0  0  0
   57.0210   -6.1586   -4.6589 N   0  0  0  0  0  0  0  0  0  0  0  0
   57.5251   -5.2573   -4.6894 H   0  0  0  0  0  0  0  0  0  0  0  0
   57.1560   -6.9234   -3.4289 C   0  0  0  0  0  0  0  0  0  0  0  0
   56.3215   -6.3569   -2.3182 C   0  0  0  0  0  0  0  0  0  0  0  0
   57.1298   -5.5405   -1.3360 C   0  0  0  0  0  0  0  0  0  0  0  0
   58.1299   -6.3450   -0.6636 N   0  0  0  0  0  0  0  0  0  0  0  0
   59.2670   -5.4950   -0.3860 C   0  0  0  0  0  0  0  0  0  0  0  0
   58.6000   -7.4274   -1.5259 C   0  0  0  0  0  0  0  0  0  0  0  0
   58.5949   -6.9800   -2.9718 C   0  0  0  0  0  0  0  0  0  0  0  0
   53.4727   -4.0697   -8.8076 O   0  0  0  0  0  0  0  0  0  0  0  0
   51.9823   -2.1658   -8.8455 C   0  0  0  0  0  0  0  0  0  0  0  0
   52.6631   -3.2717   -8.0335 C   0  0  0  0  0  0  0  0  0  0  0  0
   51.4839   -4.0807   -7.4529 C   0  0  0  0  0  0  0  0  0  0  0  0
   60.8746   -2.2653  -13.5921 C   0  0  0  0  0  0  0  0  0  0  0  0
   62.3515   -2.1271  -13.6697 C   0  0  0  0  0  0  0  0  0  0  0  0
   63.0206   -0.9601  -13.3251 C   0  0  0  0  0  0  0  0  0  0  0  0
   64.3917   -0.8932  -13.4189 C   0  0  0  0  0  0  0  0  0  0  0  0
   65.1630   -1.9496  -13.8484 C   0  0  0  0  0  0  0  0  0  0  0  0
   64.4951   -3.1125  -14.1917 C   0  0  0  0  0  0  0  0  0  0  0  0
   63.1252   -3.1929  -14.1027 C   0  0  0  0  0  0  0  0  0  0  0  0
 38 39  1  0  0  0
 39 40  1  0  0  0
 39 37  1  0  0  0
 37 20  1  0  0  0
 20 21  2  0  0  0
 21 22  1  0  0  0
 22 23  2  0  0  0
 23 24  1  0  0  0
 24 25  2  0  0  0
 25 18  1  0  0  0
 18  1  1  0  0  0
  1  2  2  0  0  0
  2  3  1  0  0  0
  3  4  2  0  0  0
  4  5  1  0  0  0
  5  6  1  0  0  0
  5  7  1  0  0  0
  7  8  2  0  0  0
  7  9  1  0  0  0
  9 41  1  0  0  0
 41 42  1  0  0  0
 42 43  2  0  0  0
 43 44  1  0  0  0
 44 45  2  0  0  0
 45 46  1  0  0  0
 46 47  2  0  0  0
  9 10  1  0  0  0
 10 13  1  0  0  0
 13 14  1  0  0  0
 14 15  1  0  0  0
 15 16  1  0  0  0
 16 17  1  0  0  0
 10 11  1  0  0  0
 11 12  2  0  0  0
 22 26  1  0  0  0
 26 27  2  0  0  0
 26 28  1  0  0  0
 28 30  1  0  0  0
 30 31  1  0  0  0
 31 32  1  0  0  0
 32 33  1  0  0  0
 33 34  1  0  0  0
 33 35  1  0  0  0
 35 36  1  0  0  0
 25 20  1  0  0  0
 12  1  1  0  0  0
 36 30  1  0  0  0
 11  4  1  0  0  0
 47 42  1  0  0  0
 17 13  1  0  0  0
 18 19  1  0  0  0
 28 29  1  0  0  0
M  END
> <minimizedAffinity>
-4.63926

> <CNNscore>
0.4388316572

> <CNNaffinity>
7.1956033707

> <CNN_VS>
3.1576585770

> <CNNaffinity_variance>
0.2120831013

$$$$
[H]c1nc(N([H])c2c([H])c([H])c(C(=O)N([H])C3([H])C([H])([H])C([H])([H])N(C([H])([H])[H])C([H])([H])C3([H])[H])c([H])c2OC([H])(C([H])([H])[H])C([H])([H])[H])nc2c1N(C([H])([H])[H])C(=O)[C@@]([H])(C([H])([H])c1c([H])c([H])c([H])c([H])c1[H])N2C1([H])C([H])([H])C([H])([H])C([H])([H])C1([H])[H]


 47 52  0  0  0  0  0  0  0  0999 V2000
   59.2856   -5.9547   -8.6879 C   0  0  0  0  0  0  0  0  0  0  0  0
   58.9553   -5.5202   -9.8998 N   0  0  0  0  0  0  0  0  0  0  0  0
   57.8024   -4.9116  -10.2080 C   0  0  0  0  0  0  0  0  0  0  0  0
   56.8552   -4.7017   -9.2055 C   0  0  0  0  0  0  0  0  0  0  0  0
   55.6182   -4.0588   -9.4908 N   0  0  0  0  0  0  0  0  0  0  0  0
   55.2921   -3.5961  -10.8382 C   0  0  0  0  0  0  0  0  0  0  0  0
   54.7157   -3.8888   -8.4045 C   0  0  0  0  0  0  0  0  0  0  0  0
   53.8398   -2.9839   -8.4685 O   0  0  0  0  0  0  0  0  0  0  0  0
   54.8520   -4.7852   -7.2524 C   0  0  0  0  0  0  0  0  0  0  0  0
   56.2472   -4.9607   -6.8419 N   0  0  0  0  0  0  0  0  0  0  0  0
   57.1682   -5.1408   -7.9377 C   0  0  0  0  0  0  0  0  0  0  0  0
   58.3218   -5.7295   -7.7181 N   0  0  0  0  0  0  0  0  0  0  0  0
   56.6042   -4.9457   -5.4778 C   0  0  0  0  0  0  0  0  0  0  0  0
   56.5828   -6.3007   -4.8104 C   0  0  0  0  0  0  0  0  0  0  0  0
   56.7146   -5.9677   -3.3602 C   0  0  0  0  0  0  0  0  0  0  0  0
   56.5017   -4.4830   -3.2105 C   0  0  0  0  0  0  0  0  0  0  0  0
   55.9023   -4.0253   -4.5586 C   0  0  0  0  0  0  0  0  0  0  0  0
   60.4800   -6.5987   -8.2945 N   0  0  0  0  0  0  0  0  0  0  0  0
   60.7832   -6.4627   -7.2755 H   0  0  0  0  0  0  0  0  0  0  0  0
   62.6275   -6.9625   -9.3117 C   0  0  0  0  0  0  0  0  0  0  0  0
   63.4952   -7.6622  -10.1193 C   0  0  0  0  0  0  0  0  0  0  0  0
   63.1092   -8.8171  -10.7942 C   0  0  0  0  0  0  0  0  0  0  0  0
   61.8224   -9.2345  -10.6225 C   0  0  0  0  0  0  0  0  0  0  0  0
   60.9457   -8.5175   -9.7994 C   0  0  0  0  0  0  0  0  0  0  0  0
   61.2829   -7.3840   -9.1222 C   0  0  0  0  0  0  0  0  0  0  0  0
   64.0816   -9.4855  -11.6175 C   0  0  0  0  0  0  0  0  0  0  0  0
   64.9213  -10.2644  -11.1077 O   0  0  0  0  0  0  0  0  0  0  0  0
   64.0991   -9.2686  -13.0159 N   0  0  0  0  0  0  0  0  0  0  0  0
   63.4262   -8.6338  -13.4761 H   0  0  0  0  0  0  0  0  0  0  0  0
   65.0613   -9.9205  -13.8906 C   0  0  0  0  0  0  0  0  0  0  0  0
   65.6276   -8.9759  -14.9094 C   0  0  0  0  0  0  0  0  0  0  0  0
   64.9973   -9.1386  -16.2735 C   0  0  0  0  0  0  0  0  0  0  0  0
   65.2428  -10.4559  -16.8249 N   0  0  0  0  0  0  0  0  0  0  0  0
   64.1005  -10.8148  -17.6368 C   0  0  0  0  0  0  0  0  0  0  0  0
   65.3517  -11.4570  -15.7657 C   0  0  0  0  0  0  0  0  0  0  0  0
   64.4414  -11.0943  -14.6120 C   0  0  0  0  0  0  0  0  0  0  0  0
   62.9983   -5.8170   -8.6374 O   0  0  0  0  0  0  0  0  0  0  0  0
   64.3052   -4.2455   -7.3452 C   0  0  0  0  0  0  0  0  0  0  0  0
   64.0998   -5.6855   -7.8244 C   0  0  0  0  0  0  0  0  0  0  0  0
   63.9191   -6.4859   -6.5172 C   0  0  0  0  0  0  0  0  0  0  0  0
   54.1885   -6.0895   -7.5468 C   0  0  0  0  0  0  0  0  0  0  0  0
   52.8401   -6.0811   -6.9237 C   0  0  0  0  0  0  0  0  0  0  0  0
   51.6954   -6.4921   -7.5937 C   0  0  0  0  0  0  0  0  0  0  0  0
   50.4732   -6.4606   -6.9623 C   0  0  0  0  0  0  0  0  0  0  0  0
   50.3147   -6.0315   -5.6638 C   0  0  0  0  0  0  0  0  0  0  0  0
   51.4564   -5.6220   -4.9968 C   0  0  0  0  0  0  0  0  0  0  0  0
   52.6840   -5.6483   -5.6159 C   0  0  0  0  0  0  0  0  0  0  0  0
 38 39  1  0  0  0
 39 40  1  0  0  0
 39 37  1  0  0  0
 37 20  1  0  0  0
 20 21  2  0  0  0
 21 22  1  0  0  0
 22 23  2  0  0  0
 23 24  1  0  0  0
 24 25  2  0  0  0
 25 18  1  0  0  0
 18  1  1  0  0  0
  1  2  2  0  0  0
  2  3  1  0  0  0
  3  4  2  0  0  0
  4  5  1  0  0  0
  5  6  1  0  0  0
  5  7  1  0  0  0
  7  8  2  0  0  0
  7  9  1  0  0  0
  9 41  1  0  0  0
 41 42  1  0  0  0
 42 43  2  0  0  0
 43 44  1  0  0  0
 44 45  2  0  0  0
 45 46  1  0  0  0
 46 47  2  0  0  0
  9 10  1  0  0  0
 10 13  1  0  0  0
 13 14  1  0  0  0
 14 15  1  0  0  0
 15 16  1  0  0  0
 16 17  1  0  0  0
 10 11  1  0  0  0
 11 12  2  0  0  0
 22 26  1  0  0  0
 26 27  2  0  0  0
 26 28  1  0  0  0
 28 30  1  0  0  0
 30 31  1  0  0  0
 31 32  1  0  0  0
 32 33  1  0  0  0
 33 34  1  0  0  0
 33 35  1  0  0  0
 35 36  1  0  0  0
 25 20  1  0  0  0
 12  1  1  0  0  0
 36 30  1  0  0  0
 11  4  1  0  0  0
 47 42  1  0  0  0
 17 13  1  0  0  0
 18 19  1  0  0  0
 28 29  1  0  0  0
M  END
> <minimizedAffinity>
-6.99558

> <CNNscore>
0.3487270474

> <CNNaffinity>
6.8843216896

> <CNN_VS>
2.4007492065

> <CNNaffinity_variance>
0.1493149251

$$$$
[H]c1nc(N([H])c2c([H])c([H])c(C(=O)N([H])C3([H])C([H])([H])C([H])([H])N(C([H])([H])[H])C([H])([H])C3([H])[H])c([H])c2OC([H])(C([H])([H])[H])C([H])([H])[H])nc2c1N(C([H])([H])[H])C(=O)[C@@]([H])(C([H])([H])c1c([H])c([H])c([H])c([H])c1[H])N2C1([H])C([H])([H])C([H])([H])C([H])([H])C1([H])[H]


 47 52  0  0  0  0  0  0  0  0999 V2000
   54.8633   -5.6703   -6.9274 C   0  0  0  0  0  0  0  0  0  0  0  0
   55.5454   -6.6297   -6.3103 N   0  0  0  0  0  0  0  0  0  0  0  0
   55.0595   -7.4102   -5.3359 C   0  0  0  0  0  0  0  0  0  0  0  0
   53.7424   -7.2295   -4.9132 C   0  0  0  0  0  0  0  0  0  0  0  0
   53.1877   -8.0375   -3.8815 N   0  0  0  0  0  0  0  0  0  0  0  0
   53.9718   -9.0825   -3.2265 C   0  0  0  0  0  0  0  0  0  0  0  0
   51.8368   -7.7798   -3.5184 C   0  0  0  0  0  0  0  0  0  0  0  0
   51.1657   -8.6898   -2.9601 O   0  0  0  0  0  0  0  0  0  0  0  0
   51.2873   -6.4534   -3.8155 C   0  0  0  0  0  0  0  0  0  0  0  0
   51.6380   -5.9911   -5.1606 N   0  0  0  0  0  0  0  0  0  0  0  0
   53.0087   -6.2424   -5.5341 C   0  0  0  0  0  0  0  0  0  0  0  0
   53.5599   -5.5193   -6.4823 N   0  0  0  0  0  0  0  0  0  0  0  0
   50.6780   -5.3605   -5.9788 C   0  0  0  0  0  0  0  0  0  0  0  0
   50.2923   -3.9697   -5.5331 C   0  0  0  0  0  0  0  0  0  0  0  0
   49.0981   -3.6614   -6.3759 C   0  0  0  0  0  0  0  0  0  0  0  0
   48.6568   -4.9451   -7.0311 C   0  0  0  0  0  0  0  0  0  0  0  0
   49.4110   -6.0616   -6.2757 C   0  0  0  0  0  0  0  0  0  0  0  0
   55.3112   -4.8164   -7.9602 N   0  0  0  0  0  0  0  0  0  0  0  0
   54.7682   -3.9020   -8.0936 H   0  0  0  0  0  0  0  0  0  0  0  0
   57.6724   -4.6397   -8.3750 C   0  0  0  0  0  0  0  0  0  0  0  0
   58.7966   -4.8346   -9.1451 C   0  0  0  0  0  0  0  0  0  0  0  0
   58.7433   -5.4639  -10.3858 C   0  0  0  0  0  0  0  0  0  0  0  0
   57.5195   -5.8856  -10.8148 C   0  0  0  0  0  0  0  0  0  0  0  0
   56.3806   -5.6836  -10.0259 C   0  0  0  0  0  0  0  0  0  0  0  0
   56.3893   -5.0729   -8.8078 C   0  0  0  0  0  0  0  0  0  0  0  0
   59.9678   -5.6261  -11.1236 C   0  0  0  0  0  0  0  0  0  0  0  0
   60.0918   -5.1333  -12.2697 O   0  0  0  0  0  0  0  0  0  0  0  0
   61.0477   -6.3466  -10.5600 N   0  0  0  0  0  0  0  0  0  0  0  0
   60.9869   -6.7700   -9.6195 H   0  0  0  0  0  0  0  0  0  0  0  0
   62.3055   -6.5378  -11.2652 C   0  0  0  0  0  0  0  0  0  0  0  0
   62.4737   -7.9492  -11.7456 C   0  0  0  0  0  0  0  0  0  0  0  0
   63.3946   -8.7620  -10.8649 C   0  0  0  0  0  0  0  0  0  0  0  0
   64.7390   -8.2218  -10.8503 N   0  0  0  0  0  0  0  0  0  0  0  0
   65.3069   -8.4854   -9.5461 C   0  0  0  0  0  0  0  0  0  0  0  0
   64.7244   -6.7714  -11.0299 C   0  0  0  0  0  0  0  0  0  0  0  0
   63.4854   -6.1809  -10.3917 C   0  0  0  0  0  0  0  0  0  0  0  0
   57.7125   -4.0178   -7.1437 O   0  0  0  0  0  0  0  0  0  0  0  0
   56.7664   -4.2091   -4.9266 C   0  0  0  0  0  0  0  0  0  0  0  0
   56.6216   -3.7067   -6.3661 C   0  0  0  0  0  0  0  0  0  0  0  0
   56.4739   -2.1784   -6.2092 C   0  0  0  0  0  0  0  0  0  0  0  0
   51.7126   -5.4839   -2.7634 C   0  0  0  0  0  0  0  0  0  0  0  0
   53.1424   -5.7324   -2.4468 C   0  0  0  0  0  0  0  0  0  0  0  0
   54.1813   -5.0254   -3.0376 C   0  0  0  0  0  0  0  0  0  0  0  0
   55.4870   -5.3023   -2.7032 C   0  0  0  0  0  0  0  0  0  0  0  0
   55.8339   -6.2705   -1.7878 C   0  0  0  0  0  0  0  0  0  0  0  0
   54.7975   -6.9747   -1.1995 C   0  0  0  0  0  0  0  0  0  0  0  0
   53.4883   -6.7081   -1.5246 C   0  0  0  0  0  0  0  0  0  0  0  0
 38 39  1  0  0  0
 39 40  1  0  0  0
 39 37  1  0  0  0
 37 20  1  0  0  0
 20 21  2  0  0  0
 21 22  1  0  0  0
 22 23  2  0  0  0
 23 24  1  0  0  0
 24 25  2  0  0  0
 25 18  1  0  0  0
 18  1  1  0  0  0
  1  2  2  0  0  0
  2  3  1  0  0  0
  3  4  2  0  0  0
  4  5  1  0  0  0
  5  6  1  0  0  0
  5  7  1  0  0  0
  7  8  2  0  0  0
  7  9  1  0  0  0
  9 41  1  0  0  0
 41 42  1  0  0  0
 42 43  2  0  0  0
 43 44  1  0  0  0
 44 45  2  0  0  0
 45 46  1  0  0  0
 46 47  2  0  0  0
  9 10  1  0  0  0
 10 13  1  0  0  0
 13 14  1  0  0  0
 14 15  1  0  0  0
 15 16  1  0  0  0
 16 17  1  0  0  0
 10 11  1  0  0  0
 11 12  2  0  0  0
 22 26  1  0  0  0
 26 27  2  0  0  0
 26 28  1  0  0  0
 28 30  1  0  0  0
 30 31  1  0  0  0
 31 32  1  0  0  0
 32 33  1  0  0  0
 33 34  1  0  0  0
 33 35  1  0  0  0
 35 36  1  0  0  0
 25 20  1  0  0  0
 12  1  1  0  0  0
 36 30  1  0  0  0
 11  4  1  0  0  0
 47 42  1  0  0  0
 17 13  1  0  0  0
 18 19  1  0  0  0
 28 29  1  0  0  0
M  END
> <minimizedAffinity>
6.88483

> <CNNscore>
0.3308301270

> <CNNaffinity>
6.9713010788

> <CNN_VS>
2.3063163757

> <CNNaffinity_variance>
0.5914834738

$$$$
[H]c1nc(N([H])c2c([H])c([H])c(C(=O)N([H])C3([H])C([H])([H])C([H])([H])N(C([H])([H])[H])C([H])([H])C3([H])[H])c([H])c2OC([H])(C([H])([H])[H])C([H])([H])[H])nc2c1N(C([H])([H])[H])C(=O)[C@@]([H])(C([H])([H])c1c([H])c([H])c([H])c([H])c1[H])N2C1([H])C([H])([H])C([H])([H])C([H])([H])C1([H])[H]


 47 52  0  0  0  0  0  0  0  0999 V2000
   53.9628   -4.6657   -7.7361 C   0  0  0  0  0  0  0  0  0  0  0  0
   52.6462   -4.5665   -7.8889 N   0  0  0  0  0  0  0  0  0  0  0  0
   51.7467   -4.7263   -6.9092 C   0  0  0  0  0  0  0  0  0  0  0  0
   52.1908   -5.0193   -5.6196 C   0  0  0  0  0  0  0  0  0  0  0  0
   51.2683   -5.1963   -4.5507 N   0  0  0  0  0  0  0  0  0  0  0  0
   49.8266   -5.0798   -4.7603 C   0  0  0  0  0  0  0  0  0  0  0  0
   51.8149   -5.4920   -3.2712 C   0  0  0  0  0  0  0  0  0  0  0  0
   51.1371   -5.2368   -2.2389 O   0  0  0  0  0  0  0  0  0  0  0  0
   53.1545   -6.0854   -3.2177 C   0  0  0  0  0  0  0  0  0  0  0  0
   54.0954   -5.4256   -4.1261 N   0  0  0  0  0  0  0  0  0  0  0  0
   53.5508   -5.1285   -5.4286 C   0  0  0  0  0  0  0  0  0  0  0  0
   54.3674   -4.9573   -6.4434 N   0  0  0  0  0  0  0  0  0  0  0  0
   55.4099   -5.1287   -3.7107 C   0  0  0  0  0  0  0  0  0  0  0  0
   56.3908   -6.2652   -3.8778 C   0  0  0  0  0  0  0  0  0  0  0  0
   57.5902   -5.7931   -3.1228 C   0  0  0  0  0  0  0  0  0  0  0  0
   57.1771   -4.5905   -2.3134 C   0  0  0  0  0  0  0  0  0  0  0  0
   55.6330   -4.5916   -2.3517 C   0  0  0  0  0  0  0  0  0  0  0  0
   54.9634   -4.5067   -8.7209 N   0  0  0  0  0  0  0  0  0  0  0  0
   54.6768   -3.9886   -9.6143 H   0  0  0  0  0  0  0  0  0  0  0  0
   57.0540   -4.9805   -9.8087 C   0  0  0  0  0  0  0  0  0  0  0  0
   58.3549   -5.4302   -9.8148 C   0  0  0  0  0  0  0  0  0  0  0  0
   58.9812   -5.8979   -8.6628 C   0  0  0  0  0  0  0  0  0  0  0  0
   58.2477   -5.8935   -7.5132 C   0  0  0  0  0  0  0  0  0  0  0  0
   56.9250   -5.4346   -7.5150 C   0  0  0  0  0  0  0  0  0  0  0  0
   56.2756   -4.9695   -8.6191 C   0  0  0  0  0  0  0  0  0  0  0  0
   60.3440   -6.3490   -8.7603 C   0  0  0  0  0  0  0  0  0  0  0  0
   61.2930   -5.5725   -8.4990 O   0  0  0  0  0  0  0  0  0  0  0  0
   60.6266   -7.6787   -9.1539 N   0  0  0  0  0  0  0  0  0  0  0  0
   59.8747   -8.3504   -9.3796 H   0  0  0  0  0  0  0  0  0  0  0  0
   61.9866   -8.1824   -9.2670 C   0  0  0  0  0  0  0  0  0  0  0  0
   62.2583   -8.7737  -10.6188 C   0  0  0  0  0  0  0  0  0  0  0  0
   62.2083  -10.2844  -10.6183 C   0  0  0  0  0  0  0  0  0  0  0  0
   63.2279  -10.8553   -9.7616 N   0  0  0  0  0  0  0  0  0  0  0  0
   62.7039  -12.0861   -9.2110 C   0  0  0  0  0  0  0  0  0  0  0  0
   63.5247   -9.9706   -8.6367 C   0  0  0  0  0  0  0  0  0  0  0  0
   62.2749   -9.2281   -8.2153 C   0  0  0  0  0  0  0  0  0  0  0  0
   56.4225   -4.5142  -10.9438 O   0  0  0  0  0  0  0  0  0  0  0  0
   55.9741   -3.9714  -13.2572 C   0  0  0  0  0  0  0  0  0  0  0  0
   56.9701   -4.4670  -12.2045 C   0  0  0  0  0  0  0  0  0  0  0  0
   58.1172   -3.4364  -12.2694 C   0  0  0  0  0  0  0  0  0  0  0  0
   53.0667   -7.5531   -3.4746 C   0  0  0  0  0  0  0  0  0  0  0  0
   52.8395   -8.2434   -2.1791 C   0  0  0  0  0  0  0  0  0  0  0  0
   53.6300   -8.0266   -1.0583 C   0  0  0  0  0  0  0  0  0  0  0  0
   53.3696   -8.6975    0.1145 C   0  0  0  0  0  0  0  0  0  0  0  0
   52.3381   -9.6000    0.2449 C   0  0  0  0  0  0  0  0  0  0  0  0
   51.5507   -9.8155   -0.8729 C   0  0  0  0  0  0  0  0  0  0  0  0
   51.7999   -9.1517   -2.0512 C   0  0  0  0  0  0  0  0  0  0  0  0
 38 39  1  0  0  0
 39 40  1  0  0  0
 39 37  1  0  0  0
 37 20  1  0  0  0
 20 21  2  0  0  0
 21 22  1  0  0  0
 22 23  2  0  0  0
 23 24  1  0  0  0
 24 25  2  0  0  0
 25 18  1  0  0  0
 18  1  1  0  0  0
  1  2  2  0  0  0
  2  3  1  0  0  0
  3  4  2  0  0  0
  4  5  1  0  0  0
  5  6  1  0  0  0
  5  7  1  0  0  0
  7  8  2  0  0  0
  7  9  1  0  0  0
  9 41  1  0  0  0
 41 42  1  0  0  0
 42 43  2  0  0  0
 43 44  1  0  0  0
 44 45  2  0  0  0
 45 46  1  0  0  0
 46 47  2  0  0  0
  9 10  1  0  0  0
 10 13  1  0  0  0
 13 14  1  0  0  0
 14 15  1  0  0  0
 15 16  1  0  0  0
 16 17  1  0  0  0
 10 11  1  0  0  0
 11 12  2  0  0  0
 22 26  1  0  0  0
 26 27  2  0  0  0
 26 28  1  0  0  0
 28 30  1  0  0  0
 30 31  1  0  0  0
 31 32  1  0  0  0
 32 33  1  0  0  0
 33 34  1  0  0  0
 33 35  1  0  0  0
 35 36  1  0  0  0
 25 20  1  0  0  0
 12  1  1  0  0  0
 36 30  1  0  0  0
 11  4  1  0  0  0
 47 42  1  0  0  0
 17 13  1  0  0  0
 18 19  1  0  0  0
 28 29  1  0  0  0
M  END
> <minimizedAffinity>
-7.04805

> <CNNscore>
0.3266125917

> <CNNaffinity>
7.4852700233

> <CNN_VS>
2.4447834492

> <CNNaffinity_variance>
0.2709659934

$$$$
[H]c1nc(N([H])c2c([H])c([H])c(C(=O)N([H])C3([H])C([H])([H])C([H])([H])N(C([H])([H])[H])C([H])([H])C3([H])[H])c([H])c2OC([H])(C([H])([H])[H])C([H])([H])[H])nc2c1N(C([H])([H])[H])C(=O)[C@@]([H])(C([H])([H])c1c([H])c([H])c([H])c([H])c1[H])N2C1([H])C([H])([H])C([H])([H])C([H])([H])C1([H])[H]


 47 52  0  0  0  0  0  0  0  0999 V2000
   59.5106   -5.6718   -8.7575 C   0  0  0  0  0  0  0  0  0  0  0  0
   59.0964   -5.3182   -9.9699 N   0  0  0  0  0  0  0  0  0  0  0  0
   57.8726   -4.8552  -10.2571 C   0  0  0  0  0  0  0  0  0  0  0  0
   56.9380   -4.7214   -9.2301 C   0  0  0  0  0  0  0  0  0  0  0  0
   55.6274   -4.2332   -9.4925 N   0  0  0  0  0  0  0  0  0  0  0  0
   55.2102   -3.8555  -10.8413 C   0  0  0  0  0  0  0  0  0  0  0  0
   54.7443   -4.1311   -8.3821 C   0  0  0  0  0  0  0  0  0  0  0  0
   53.7688   -3.3343   -8.4433 O   0  0  0  0  0  0  0  0  0  0  0  0
   55.0170   -4.9675   -7.2092 C   0  0  0  0  0  0  0  0  0  0  0  0
   56.4348   -4.9693   -6.8408 N   0  0  0  0  0  0  0  0  0  0  0  0
   57.3372   -5.0797   -7.9611 C   0  0  0  0  0  0  0  0  0  0  0  0
   58.5568   -5.5257   -7.7630 N   0  0  0  0  0  0  0  0  0  0  0  0
   56.8284   -4.8686   -5.4904 C   0  0  0  0  0  0  0  0  0  0  0  0
   56.9013   -6.1886   -4.7597 C   0  0  0  0  0  0  0  0  0  0  0  0
   57.0548   -5.7788   -3.3315 C   0  0  0  0  0  0  0  0  0  0  0  0
   56.7637   -4.3024   -3.2454 C   0  0  0  0  0  0  0  0  0  0  0  0
   56.1022   -3.9441   -4.5945 C   0  0  0  0  0  0  0  0  0  0  0  0
   60.7822   -6.1624   -8.3855 N   0  0  0  0  0  0  0  0  0  0  0  0
   61.5241   -5.4291   -8.1389 H   0  0  0  0  0  0  0  0  0  0  0  0
   62.0367   -7.8931   -7.2857 C   0  0  0  0  0  0  0  0  0  0  0  0
   62.4587   -9.1956   -7.1441 C   0  0  0  0  0  0  0  0  0  0  0  0
   62.0335  -10.2080   -7.9998 C   0  0  0  0  0  0  0  0  0  0  0  0
   61.1718   -9.8560   -8.9965 C   0  0  0  0  0  0  0  0  0  0  0  0
   60.7472   -8.5291   -9.1342 C   0  0  0  0  0  0  0  0  0  0  0  0
   61.1390   -7.5095   -8.3193 C   0  0  0  0  0  0  0  0  0  0  0  0
   62.5249  -11.5421   -7.7785 C   0  0  0  0  0  0  0  0  0  0  0  0
   63.1306  -12.1576   -8.6873 O   0  0  0  0  0  0  0  0  0  0  0  0
   62.3278  -12.1742   -6.5276 N   0  0  0  0  0  0  0  0  0  0  0  0
   61.8327  -11.7034   -5.7526 H   0  0  0  0  0  0  0  0  0  0  0  0
   62.8055  -13.5207   -6.2545 C   0  0  0  0  0  0  0  0  0  0  0  0
   61.6958  -14.5299   -6.2858 C   0  0  0  0  0  0  0  0  0  0  0  0
   61.2287  -14.9301   -4.9051 C   0  0  0  0  0  0  0  0  0  0  0  0
   62.2825  -15.5739   -4.1472 N   0  0  0  0  0  0  0  0  0  0  0  0
   62.0872  -15.2450   -2.7520 C   0  0  0  0  0  0  0  0  0  0  0  0
   63.5955  -15.0605   -4.5323 C   0  0  0  0  0  0  0  0  0  0  0  0
   63.4918  -13.5986   -4.9108 C   0  0  0  0  0  0  0  0  0  0  0  0
   62.4507   -6.8810   -6.4438 O   0  0  0  0  0  0  0  0  0  0  0  0
   64.2197   -5.2361   -6.3332 C   0  0  0  0  0  0  0  0  0  0  0  0
   63.7436   -6.6599   -6.0303 C   0  0  0  0  0  0  0  0  0  0  0  0
   63.8575   -6.7670   -4.4948 C   0  0  0  0  0  0  0  0  0  0  0  0
   54.4991   -6.3477   -7.4425 C   0  0  0  0  0  0  0  0  0  0  0  0
   53.0674   -6.3845   -7.0484 C   0  0  0  0  0  0  0  0  0  0  0  0
   52.0622   -6.8359   -7.8934 C   0  0  0  0  0  0  0  0  0  0  0  0
   50.7528   -6.8453   -7.4706 C   0  0  0  0  0  0  0  0  0  0  0  0
   50.3696   -6.4194   -6.2187 C   0  0  0  0  0  0  0  0  0  0  0  0
   51.3724   -5.9697   -5.3771 C   0  0  0  0  0  0  0  0  0  0  0  0
   52.6849   -5.9549   -5.7870 C   0  0  0  0  0  0  0  0  0  0  0  0
 38 39  1  0  0  0
 39 40  1  0  0  0
 39 37  1  0  0  0
 37 20  1  0  0  0
 20 21  2  0  0  0
 21 22  1  0  0  0
 22 23  2  0  0  0
 23 24  1  0  0  0
 24 25  2  0  0  0
 25 18  1  0  0  0
 18  1  1  0  0  0
  1  2  2  0  0  0
  2  3  1  0  0  0
  3  4  2  0  0  0
  4  5  1  0  0  0
  5  6  1  0  0  0
  5  7  1  0  0  0
  7  8  2  0  0  0
  7  9  1  0  0  0
  9 41  1  0  0  0
 41 42  1  0  0  0
 42 43  2  0  0  0
 43 44  1  0  0  0
 44 45  2  0  0  0
 45 46  1  0  0  0
 46 47  2  0  0  0
  9 10  1  0  0  0
 10 13  1  0  0  0
 13 14  1  0  0  0
 14 15  1  0  0  0
 15 16  1  0  0  0
 16 17  1  0  0  0
 10 11  1  0  0  0
 11 12  2  0  0  0
 22 26  1  0  0  0
 26 27  2  0  0  0
 26 28  1  0  0  0
 28 30  1  0  0  0
 30 31  1  0  0  0
 31 32  1  0  0  0
 32 33  1  0  0  0
 33 34  1  0  0  0
 33 35  1  0  0  0
 35 36  1  0  0  0
 25 20  1  0  0  0
 12  1  1  0  0  0
 36 30  1  0  0  0
 11  4  1  0  0  0
 47 42  1  0  0  0
 17 13  1  0  0  0
 18 19  1  0  0  0
 28 29  1  0  0  0
M  END
> <minimizedAffinity>
-5.25740

> <CNNscore>
0.2984915376

> <CNNaffinity>
6.9812369347

> <CNN_VS>
2.0838401318

> <CNNaffinity_variance>
0.2392790765

$$$$
[H]c1nc(N([H])c2c([H])c([H])c(C(=O)N([H])C3([H])C([H])([H])C([H])([H])N(C([H])([H])[H])C([H])([H])C3([H])[H])c([H])c2OC([H])(C([H])([H])[H])C([H])([H])[H])nc2c1N(C([H])([H])[H])C(=O)[C@@]([H])(C([H])([H])c1c([H])c([H])c([H])c([H])c1[H])N2C1([H])C([H])([H])C([H])([H])C([H])([H])C1([H])[H]


 47 52  0  0  0  0  0  0  0  0999 V2000
   56.4125   -3.6047  -12.5196 C   0  0  0  0  0  0  0  0  0  0  0  0
   56.0624   -3.4060  -13.7863 N   0  0  0  0  0  0  0  0  0  0  0  0
   56.9079   -3.4132  -14.8254 C   0  0  0  0  0  0  0  0  0  0  0  0
   58.2646   -3.6439  -14.5965 C   0  0  0  0  0  0  0  0  0  0  0  0
   59.1957   -3.6602  -15.6724 N   0  0  0  0  0  0  0  0  0  0  0  0
   58.7703   -3.4360  -17.0525 C   0  0  0  0  0  0  0  0  0  0  0  0
   60.5575   -3.9038  -15.3413 C   0  0  0  0  0  0  0  0  0  0  0  0
   61.3346   -4.3536  -16.2267 O   0  0  0  0  0  0  0  0  0  0  0  0
   60.9927   -3.6160  -13.9712 C   0  0  0  0  0  0  0  0  0  0  0  0
   60.0426   -4.1033  -12.9684 N   0  0  0  0  0  0  0  0  0  0  0  0
   58.6593   -3.8538  -13.2933 C   0  0  0  0  0  0  0  0  0  0  0  0
   57.7664   -3.8305  -12.3300 N   0  0  0  0  0  0  0  0  0  0  0  0
   60.4962   -4.7547  -11.8028 C   0  0  0  0  0  0  0  0  0  0  0  0
   61.7404   -5.5892  -11.9962 C   0  0  0  0  0  0  0  0  0  0  0  0
   61.8305   -6.3655  -10.7231 C   0  0  0  0  0  0  0  0  0  0  0  0
   60.5228   -6.1991   -9.9923 C   0  0  0  0  0  0  0  0  0  0  0  0
   59.5547   -5.5953  -11.0335 C   0  0  0  0  0  0  0  0  0  0  0  0
   55.5760   -3.6136  -11.3811 N   0  0  0  0  0  0  0  0  0  0  0  0
   54.6081   -3.1677  -11.4955 H   0  0  0  0  0  0  0  0  0  0  0  0
   54.8531   -4.3578   -9.2127 C   0  0  0  0  0  0  0  0  0  0  0  0
   55.0839   -4.8695   -7.9558 C   0  0  0  0  0  0  0  0  0  0  0  0
   56.3610   -5.2106   -7.5191 C   0  0  0  0  0  0  0  0  0  0  0  0
   57.3880   -5.0163   -8.3949 C   0  0  0  0  0  0  0  0  0  0  0  0
   57.1454   -4.4954   -9.6716 C   0  0  0  0  0  0  0  0  0  0  0  0
   55.9126   -4.1490  -10.1375 C   0  0  0  0  0  0  0  0  0  0  0  0
   56.5107   -5.7393   -6.1893 C   0  0  0  0  0  0  0  0  0  0  0  0
   57.5825   -6.2862   -5.8373 O   0  0  0  0  0  0  0  0  0  0  0  0
   55.4447   -5.6467   -5.2629 N   0  0  0  0  0  0  0  0  0  0  0  0
   54.5444   -5.2055   -5.5124 H   0  0  0  0  0  0  0  0  0  0  0  0
   55.5467   -6.1653   -3.9077 C   0  0  0  0  0  0  0  0  0  0  0  0
   54.6485   -7.3465   -3.6869 C   0  0  0  0  0  0  0  0  0  0  0  0
   53.3821   -6.9887   -2.9435 C   0  0  0  0  0  0  0  0  0  0  0  0
   53.6631   -6.4933   -1.6111 N   0  0  0  0  0  0  0  0  0  0  0  0
   52.6446   -5.5218   -1.2771 C   0  0  0  0  0  0  0  0  0  0  0  0
   54.9501   -5.8020   -1.5683 C   0  0  0  0  0  0  0  0  0  0  0  0
   55.2098   -5.1044   -2.8862 C   0  0  0  0  0  0  0  0  0  0  0  0
   53.5920   -4.0164   -9.6571 O   0  0  0  0  0  0  0  0  0  0  0  0
   51.9292   -3.2456   -8.0797 C   0  0  0  0  0  0  0  0  0  0  0  0
   52.8659   -2.9226   -9.2475 C   0  0  0  0  0  0  0  0  0  0  0  0
   53.7927   -1.8252   -8.6829 C   0  0  0  0  0  0  0  0  0  0  0  0
   61.2602   -2.1550  -13.8233 C   0  0  0  0  0  0  0  0  0  0  0  0
   62.7274   -1.9563  -13.7046 C   0  0  0  0  0  0  0  0  0  0  0  0
   63.6527   -2.9334  -14.0475 C   0  0  0  0  0  0  0  0  0  0  0  0
   65.0003   -2.6896  -13.9146 C   0  0  0  0  0  0  0  0  0  0  0  0
   65.5003   -1.4953  -13.4464 C   0  0  0  0  0  0  0  0  0  0  0  0
   64.5772   -0.5220  -13.1049 C   0  0  0  0  0  0  0  0  0  0  0  0
   63.2276   -0.7525  -13.2328 C   0  0  0  0  0  0  0  0  0  0  0  0
 38 39  1  0  0  0
 39 40  1  0  0  0
 39 37  1  0  0  0
 37 20  1  0  0  0
 20 21  2  0  0  0
 21 22  1  0  0  0
 22 23  2  0  0  0
 23 24  1  0  0  0
 24 25  2  0  0  0
 25 18  1  0  0  0
 18  1  1  0  0  0
  1  2  2  0  0  0
  2  3  1  0  0  0
  3  4  2  0  0  0
  4  5  1  0  0  0
  5  6  1  0  0  0
  5  7  1  0  0  0
  7  8  2  0  0  0
  7  9  1  0  0  0
  9 41  1  0  0  0
 41 42  1  0  0  0
 42 43  2  0  0  0
 43 44  1  0  0  0
 44 45  2  0  0  0
 45 46  1  0  0  0
 46 47  2  0  0  0
  9 10  1  0  0  0
 10 13  1  0  0  0
 13 14  1  0  0  0
 14 15  1  0  0  0
 15 16  1  0  0  0
 16 17  1  0  0  0
 10 11  1  0  0  0
 11 12  2  0  0  0
 22 26  1  0  0  0
 26 27  2  0  0  0
 26 28  1  0  0  0
 28 30  1  0  0  0
 30 31  1  0  0  0
 31 32  1  0  0  0
 32 33  1  0  0  0
 33 34  1  0  0  0
 33 35  1  0  0  0
 35 36  1  0  0  0
 25 20  1  0  0  0
 12  1  1  0  0  0
 36 30  1  0  0  0
 11  4  1  0  0  0
 47 42  1  0  0  0
 17 13  1  0  0  0
 18 19  1  0  0  0
 28 29  1  0  0  0
M  END
> <minimizedAffinity>
-5.67348

> <CNNscore>
0.2973417640

> <CNNaffinity>
7.1554398537

> <CNN_VS>
2.1276111603

> <CNNaffinity_variance>
0.2377663106

$$$$
[H]c1nc(N([H])c2c([H])c([H])c(C(=O)N([H])C3([H])C([H])([H])C([H])([H])N(C([H])([H])[H])C([H])([H])C3([H])[H])c([H])c2OC([H])(C([H])([H])[H])C([H])([H])[H])nc2c1N(C([H])([H])[H])C(=O)[C@@]([H])(C([H])([H])c1c([H])c([H])c([H])c([H])c1[H])N2C1([H])C([H])([H])C([H])([H])C([H])([H])C1([H])[H]


 47 52  0  0  0  0  0  0  0  0999 V2000
   59.2333   -6.0416   -8.7045 C   0  0  0  0  0  0  0  0  0  0  0  0
   58.9094   -5.5833   -9.9093 N   0  0  0  0  0  0  0  0  0  0  0  0
   57.7723   -4.9392  -10.2042 C   0  0  0  0  0  0  0  0  0  0  0  0
   56.8361   -4.7155   -9.1944 C   0  0  0  0  0  0  0  0  0  0  0  0
   55.6161   -4.0351   -9.4655 N   0  0  0  0  0  0  0  0  0  0  0  0
   55.2966   -3.5470  -10.8055 C   0  0  0  0  0  0  0  0  0  0  0  0
   54.7240   -3.8535   -8.3726 C   0  0  0  0  0  0  0  0  0  0  0  0
   53.8732   -2.9239   -8.4211 O   0  0  0  0  0  0  0  0  0  0  0  0
   54.8408   -4.7674   -7.2322 C   0  0  0  0  0  0  0  0  0  0  0  0
   56.2325   -4.9865   -6.8311 N   0  0  0  0  0  0  0  0  0  0  0  0
   57.1429   -5.1786   -7.9336 C   0  0  0  0  0  0  0  0  0  0  0  0
   58.2808   -5.8017   -7.7271 N   0  0  0  0  0  0  0  0  0  0  0  0
   56.5963   -4.9982   -5.4687 C   0  0  0  0  0  0  0  0  0  0  0  0
   56.5859   -6.3670   -4.8299 C   0  0  0  0  0  0  0  0  0  0  0  0
   56.7232   -6.0638   -3.3736 C   0  0  0  0  0  0  0  0  0  0  0  0
   56.5027   -4.5838   -3.1917 C   0  0  0  0  0  0  0  0  0  0  0  0
   55.8939   -4.1013   -4.5268 C   0  0  0  0  0  0  0  0  0  0  0  0
   60.4112   -6.7233   -8.3251 N   0  0  0  0  0  0  0  0  0  0  0  0
   60.6491   -6.7214   -7.2800 H   0  0  0  0  0  0  0  0  0  0  0  0
   61.6693   -8.7052   -8.8424 C   0  0  0  0  0  0  0  0  0  0  0  0
   62.5287   -9.4372   -9.6300 C   0  0  0  0  0  0  0  0  0  0  0  0
   63.0598   -8.9313  -10.8133 C   0  0  0  0  0  0  0  0  0  0  0  0
   62.6915   -7.6669  -11.1672 C   0  0  0  0  0  0  0  0  0  0  0  0
   61.8170   -6.9286  -10.3609 C   0  0  0  0  0  0  0  0  0  0  0  0
   61.2757   -7.3859   -9.1969 C   0  0  0  0  0  0  0  0  0  0  0  0
   63.9507   -9.7659  -11.5750 C   0  0  0  0  0  0  0  0  0  0  0  0
   65.1574   -9.4541  -11.7099 O   0  0  0  0  0  0  0  0  0  0  0  0
   63.4705  -10.9511  -12.1815 N   0  0  0  0  0  0  0  0  0  0  0  0
   62.4833  -11.2438  -12.0965 H   0  0  0  0  0  0  0  0  0  0  0  0
   64.3308  -11.8278  -12.9607 C   0  0  0  0  0  0  0  0  0  0  0  0
   63.8214  -12.0206  -14.3587 C   0  0  0  0  0  0  0  0  0  0  0  0
   63.1107  -13.3413  -14.5464 C   0  0  0  0  0  0  0  0  0  0  0  0
   63.9985  -14.4650  -14.3261 N   0  0  0  0  0  0  0  0  0  0  0  0
   63.2123  -15.5480  -13.7766 C   0  0  0  0  0  0  0  0  0  0  0  0
   65.0281  -14.1363  -13.3423 C   0  0  0  0  0  0  0  0  0  0  0  0
   64.4722  -13.1824  -12.3069 C   0  0  0  0  0  0  0  0  0  0  0  0
   61.1361   -9.1957   -7.6678 O   0  0  0  0  0  0  0  0  0  0  0  0
   61.4775  -10.1899   -5.4901 C   0  0  0  0  0  0  0  0  0  0  0  0
   61.5476  -10.3332   -7.0134 C   0  0  0  0  0  0  0  0  0  0  0  0
   60.6030  -11.5158   -7.3155 C   0  0  0  0  0  0  0  0  0  0  0  0
   54.1399   -6.0490   -7.5389 C   0  0  0  0  0  0  0  0  0  0  0  0
   52.7986   -6.0145   -6.9017 C   0  0  0  0  0  0  0  0  0  0  0  0
   51.6483   -6.4632   -7.5370 C   0  0  0  0  0  0  0  0  0  0  0  0
   50.4331   -6.4047   -6.8941 C   0  0  0  0  0  0  0  0  0  0  0  0
   50.2873   -5.9112   -5.6171 C   0  0  0  0  0  0  0  0  0  0  0  0
   51.4346   -5.4642   -4.9847 C   0  0  0  0  0  0  0  0  0  0  0  0
   52.6553   -5.5169   -5.6156 C   0  0  0  0  0  0  0  0  0  0  0  0
 38 39  1  0  0  0
 39 40  1  0  0  0
 39 37  1  0  0  0
 37 20  1  0  0  0
 20 21  2  0  0  0
 21 22  1  0  0  0
 22 23  2  0  0  0
 23 24  1  0  0  0
 24 25  2  0  0  0
 25 18  1  0  0  0
 18  1  1  0  0  0
  1  2  2  0  0  0
  2  3  1  0  0  0
  3  4  2  0  0  0
  4  5  1  0  0  0
  5  6  1  0  0  0
  5  7  1  0  0  0
  7  8  2  0  0  0
  7  9  1  0  0  0
  9 41  1  0  0  0
 41 42  1  0  0  0
 42 43  2  0  0  0
 43 44  1  0  0  0
 44 45  2  0  0  0
 45 46  1  0  0  0
 46 47  2  0  0  0
  9 10  1  0  0  0
 10 13  1  0  0  0
 13 14  1  0  0  0
 14 15  1  0  0  0
 15 16  1  0  0  0
 16 17  1  0  0  0
 10 11  1  0  0  0
 11 12  2  0  0  0
 22 26  1  0  0  0
 26 27  2  0  0  0
 26 28  1  0  0  0
 28 30  1  0  0  0
 30 31  1  0  0  0
 31 32  1  0  0  0
 32 33  1  0  0  0
 33 34  1  0  0  0
 33 35  1  0  0  0
 35 36  1  0  0  0
 25 20  1  0  0  0
 12  1  1  0  0  0
 36 30  1  0  0  0
 11  4  1  0  0  0
 47 42  1  0  0  0
 17 13  1  0  0  0
 18 19  1  0  0  0
 28 29  1  0  0  0
M  END
> <minimizedAffinity>
-7.21606

> <CNNscore>
0.2846151590

> <CNNaffinity>
6.8146352768

> <CNN_VS>
1.9395484924

> <CNNaffinity_variance>
0.1086390242

$$$$
[H]c1nc(N([H])c2c([H])c([H])c(C(=O)N([H])C3([H])C([H])([H])C([H])([H])N(C([H])([H])[H])C([H])([H])C3([H])[H])c([H])c2OC([H])(C([H])([H])[H])C([H])([H])[H])nc2c1N(C([H])([H])[H])C(=O)[C@@]([H])(C([H])([H])c1c([H])c([H])c([H])c([H])c1[H])N2C1([H])C([H])([H])C([H])([H])C([H])([H])C1([H])[H]


 47 52  0  0  0  0  0  0  0  0999 V2000
   57.8365   -5.5915   -7.5774 C   0  0  0  0  0  0  0  0  0  0  0  0
   56.8197   -5.5788   -8.4332 N   0  0  0  0  0  0  0  0  0  0  0  0
   55.5258   -5.5653   -8.0861 C   0  0  0  0  0  0  0  0  0  0  0  0
   55.1848   -5.5637   -6.7334 C   0  0  0  0  0  0  0  0  0  0  0  0
   53.8226   -5.5491   -6.3223 N   0  0  0  0  0  0  0  0  0  0  0  0
   52.7324   -5.5364   -7.2956 C   0  0  0  0  0  0  0  0  0  0  0  0
   53.5729   -5.5482   -4.9220 C   0  0  0  0  0  0  0  0  0  0  0  0
   52.4708   -5.1094   -4.4940 O   0  0  0  0  0  0  0  0  0  0  0  0
   54.6223   -6.0637   -4.0374 C   0  0  0  0  0  0  0  0  0  0  0  0
   55.9531   -5.5721   -4.4025 N   0  0  0  0  0  0  0  0  0  0  0  0
   56.2169   -5.5764   -5.8209 C   0  0  0  0  0  0  0  0  0  0  0  0
   57.4607   -5.5895   -6.2437 N   0  0  0  0  0  0  0  0  0  0  0  0
   56.8596   -5.1430   -3.4112 C   0  0  0  0  0  0  0  0  0  0  0  0
   57.7938   -6.2187   -2.9095 C   0  0  0  0  0  0  0  0  0  0  0  0
   58.4245   -5.5894   -1.7105 C   0  0  0  0  0  0  0  0  0  0  0  0
   57.6425   -4.3431   -1.3833 C   0  0  0  0  0  0  0  0  0  0  0  0
   56.3418   -4.4567   -2.2088 C   0  0  0  0  0  0  0  0  0  0  0  0
   59.2179   -5.6029   -7.8739 N   0  0  0  0  0  0  0  0  0  0  0  0
   59.7943   -4.7812   -7.4979 H   0  0  0  0  0  0  0  0  0  0  0  0
   60.8294   -7.3859   -7.9211 C   0  0  0  0  0  0  0  0  0  0  0  0
   61.5403   -8.3749   -8.5623 C   0  0  0  0  0  0  0  0  0  0  0  0
   61.3686   -8.6501   -9.9162 C   0  0  0  0  0  0  0  0  0  0  0  0
   60.4575   -7.8931  -10.5918 C   0  0  0  0  0  0  0  0  0  0  0  0
   59.7383   -6.8888   -9.9326 C   0  0  0  0  0  0  0  0  0  0  0  0
   59.8763   -6.5878   -8.6108 C   0  0  0  0  0  0  0  0  0  0  0  0
   62.1536   -9.7022  -10.5054 C   0  0  0  0  0  0  0  0  0  0  0  0
   63.1466   -9.4323  -11.2215 O   0  0  0  0  0  0  0  0  0  0  0  0
   61.8103  -11.0567  -10.2810 N   0  0  0  0  0  0  0  0  0  0  0  0
   60.9992  -11.3228   -9.6989 H   0  0  0  0  0  0  0  0  0  0  0  0
   62.5720  -12.1557  -10.8537 C   0  0  0  0  0  0  0  0  0  0  0  0
   61.6834  -13.2480  -11.3717 C   0  0  0  0  0  0  0  0  0  0  0  0
   61.5970  -14.4282  -10.4314 C   0  0  0  0  0  0  0  0  0  0  0  0
   62.8855  -15.0653  -10.2492 N   0  0  0  0  0  0  0  0  0  0  0  0
   62.9304  -15.5944   -8.9035 C   0  0  0  0  0  0  0  0  0  0  0  0
   63.9726  -14.0958  -10.3686 C   0  0  0  0  0  0  0  0  0  0  0  0
   63.5270  -12.7478   -9.8438 C   0  0  0  0  0  0  0  0  0  0  0  0
   60.9905   -7.1041   -6.5798 O   0  0  0  0  0  0  0  0  0  0  0  0
   62.7638   -7.3122   -4.9489 C   0  0  0  0  0  0  0  0  0  0  0  0
   61.5541   -7.9419   -5.6460 C   0  0  0  0  0  0  0  0  0  0  0  0
   60.5693   -8.2228   -4.4913 C   0  0  0  0  0  0  0  0  0  0  0  0
   54.5676   -7.5549   -4.0053 C   0  0  0  0  0  0  0  0  0  0  0  0
   54.0770   -7.9778   -2.6686 C   0  0  0  0  0  0  0  0  0  0  0  0
   52.8113   -8.5100   -2.4615 C   0  0  0  0  0  0  0  0  0  0  0  0
   52.4138   -8.8830   -1.1981 C   0  0  0  0  0  0  0  0  0  0  0  0
   53.2241   -8.7548   -0.0924 C   0  0  0  0  0  0  0  0  0  0  0  0
   54.4857   -8.2242   -0.2999 C   0  0  0  0  0  0  0  0  0  0  0  0
   54.8955   -7.8473   -1.5572 C   0  0  0  0  0  0  0  0  0  0  0  0
 38 39  1  0  0  0
 39 40  1  0  0  0
 39 37  1  0  0  0
 37 20  1  0  0  0
 20 21  2  0  0  0
 21 22  1  0  0  0
 22 23  2  0  0  0
 23 24  1  0  0  0
 24 25  2  0  0  0
 25 18  1  0  0  0
 18  1  1  0  0  0
  1  2  2  0  0  0
  2  3  1  0  0  0
  3  4  2  0  0  0
  4  5  1  0  0  0
  5  6  1  0  0  0
  5  7  1  0  0  0
  7  8  2  0  0  0
  7  9  1  0  0  0
  9 41  1  0  0  0
 41 42  1  0  0  0
 42 43  2  0  0  0
 43 44  1  0  0  0
 44 45  2  0  0  0
 45 46  1  0  0  0
 46 47  2  0  0  0
  9 10  1  0  0  0
 10 13  1  0  0  0
 13 14  1  0  0  0
 14 15  1  0  0  0
 15 16  1  0  0  0
 16 17  1  0  0  0
 10 11  1  0  0  0
 11 12  2  0  0  0
 22 26  1  0  0  0
 26 27  2  0  0  0
 26 28  1  0  0  0
 28 30  1  0  0  0
 30 31  1  0  0  0
 31 32  1  0  0  0
 32 33  1  0  0  0
 33 34  1  0  0  0
 33 35  1  0  0  0
 35 36  1  0  0  0
 25 20  1  0  0  0
 12  1  1  0  0  0
 36 30  1  0  0  0
 11  4  1  0  0  0
 47 42  1  0  0  0
 17 13  1  0  0  0
 18 19  1  0  0  0
 28 29  1  0  0  0
M  END
> <minimizedAffinity>
-3.42677

> <CNNscore>
0.2764836848

> <CNNaffinity>
6.6457915306

> <CNN_VS>
1.8374528885

> <CNNaffinity_variance>
0.2034334689

$$$$
[H]c1nc(N([H])c2c([H])c([H])c(C(=O)N([H])C3([H])C([H])([H])C([H])([H])N(C([H])([H])[H])C([H])([H])C3([H])[H])c([H])c2OC([H])(C([H])([H])[H])C([H])([H])[H])nc2c1N(C([H])([H])[H])C(=O)[C@@]([H])(C([H])([H])c1c([H])c([H])c([H])c([H])c1[H])N2C1([H])C([H])([H])C([H])([H])C([H])([H])C1([H])[H]


 47 52  0  0  0  0  0  0  0  0999 V2000
   53.8199   -4.6873   -7.7209 C   0  0  0  0  0  0  0  0  0  0  0  0
   52.4969   -4.5755   -7.7822 N   0  0  0  0  0  0  0  0  0  0  0  0
   51.6646   -4.7449   -6.7462 C   0  0  0  0  0  0  0  0  0  0  0  0
   52.1927   -5.0629   -5.4948 C   0  0  0  0  0  0  0  0  0  0  0  0
   51.3434   -5.2508   -4.3686 N   0  0  0  0  0  0  0  0  0  0  0  0
   49.8919   -5.1198   -4.4777 C   0  0  0  0  0  0  0  0  0  0  0  0
   51.9730   -5.5722   -3.1342 C   0  0  0  0  0  0  0  0  0  0  0  0
   51.3691   -5.3292   -2.0542 O   0  0  0  0  0  0  0  0  0  0  0  0
   53.3079   -6.1766   -3.1817 C   0  0  0  0  0  0  0  0  0  0  0  0
   54.1907   -5.5088   -4.1411 N   0  0  0  0  0  0  0  0  0  0  0  0
   53.5615   -5.1856   -5.3986 C   0  0  0  0  0  0  0  0  0  0  0  0
   54.3088   -5.0037   -6.4636 N   0  0  0  0  0  0  0  0  0  0  0  0
   55.5329   -5.2290   -3.8114 C   0  0  0  0  0  0  0  0  0  0  0  0
   56.4743   -6.3991   -3.9740 C   0  0  0  0  0  0  0  0  0  0  0  0
   57.7245   -5.9249   -3.3080 C   0  0  0  0  0  0  0  0  0  0  0  0
   57.3866   -4.6738   -2.5383 C   0  0  0  0  0  0  0  0  0  0  0  0
   55.8431   -4.6337   -2.4944 C   0  0  0  0  0  0  0  0  0  0  0  0
   54.7526   -4.5193   -8.7688 N   0  0  0  0  0  0  0  0  0  0  0  0
   54.3938   -4.0355   -9.6553 H   0  0  0  0  0  0  0  0  0  0  0  0
   56.7814   -4.9751   -9.9750 C   0  0  0  0  0  0  0  0  0  0  0  0
   58.0945   -5.3811  -10.0500 C   0  0  0  0  0  0  0  0  0  0  0  0
   58.8133   -5.7719   -8.9236 C   0  0  0  0  0  0  0  0  0  0  0  0
   58.1589   -5.7367   -7.7277 C   0  0  0  0  0  0  0  0  0  0  0  0
   56.8232   -5.3226   -7.6595 C   0  0  0  0  0  0  0  0  0  0  0  0
   56.0847   -4.9328   -8.7364 C   0  0  0  0  0  0  0  0  0  0  0  0
   60.1821   -6.1816   -9.0938 C   0  0  0  0  0  0  0  0  0  0  0  0
   60.7362   -6.1039  -10.2157 O   0  0  0  0  0  0  0  0  0  0  0  0
   60.9181   -6.6784   -7.9917 N   0  0  0  0  0  0  0  0  0  0  0  0
   60.4993   -6.7603   -7.0508 H   0  0  0  0  0  0  0  0  0  0  0  0
   62.3035   -7.1047   -8.1123 C   0  0  0  0  0  0  0  0  0  0  0  0
   62.6839   -8.0930   -7.0495 C   0  0  0  0  0  0  0  0  0  0  0  0
   63.4745   -7.4672   -5.9235 C   0  0  0  0  0  0  0  0  0  0  0  0
   64.7378   -6.9303   -6.3877 N   0  0  0  0  0  0  0  0  0  0  0  0
   65.0520   -5.7751   -5.5756 C   0  0  0  0  0  0  0  0  0  0  0  0
   64.6366   -6.4709   -7.7715 C   0  0  0  0  0  0  0  0  0  0  0  0
   63.2491   -5.9286   -8.0392 C   0  0  0  0  0  0  0  0  0  0  0  0
   56.0586   -4.5851  -11.0841 O   0  0  0  0  0  0  0  0  0  0  0  0
   58.0479   -3.6538  -12.0955 C   0  0  0  0  0  0  0  0  0  0  0  0
   56.5222   -3.7874  -12.1040 C   0  0  0  0  0  0  0  0  0  0  0  0
   56.2158   -4.4171  -13.4794 C   0  0  0  0  0  0  0  0  0  0  0  0
   53.1900   -7.6391   -3.4559 C   0  0  0  0  0  0  0  0  0  0  0  0
   52.8739   -8.3316   -2.1804 C   0  0  0  0  0  0  0  0  0  0  0  0
   51.8376   -9.2472   -2.0541 C   0  0  0  0  0  0  0  0  0  0  0  0
   51.5935   -9.8561   -0.8446 C   0  0  0  0  0  0  0  0  0  0  0  0
   52.3410   -9.6019    0.2833 C   0  0  0  0  0  0  0  0  0  0  0  0
   53.3738   -8.6891    0.1565 C   0  0  0  0  0  0  0  0  0  0  0  0
   53.6285   -8.0733   -1.0464 C   0  0  0  0  0  0  0  0  0  0  0  0
 38 39  1  0  0  0
 39 40  1  0  0  0
 39 37  1  0  0  0
 37 20  1  0  0  0
 20 21  2  0  0  0
 21 22  1  0  0  0
 22 23  2  0  0  0
 23 24  1  0  0  0
 24 25  2  0  0  0
 25 18  1  0  0  0
 18  1  1  0  0  0
  1  2  2  0  0  0
  2  3  1  0  0  0
  3  4  2  0  0  0
  4  5  1  0  0  0
  5  6  1  0  0  0
  5  7  1  0  0  0
  7  8  2  0  0  0
  7  9  1  0  0  0
  9 41  1  0  0  0
 41 42  1  0  0  0
 42 43  2  0  0  0
 43 44  1  0  0  0
 44 45  2  0  0  0
 45 46  1  0  0  0
 46 47  2  0  0  0
  9 10  1  0  0  0
 10 13  1  0  0  0
 13 14  1  0  0  0
 14 15  1  0  0  0
 15 16  1  0  0  0
 16 17  1  0  0  0
 10 11  1  0  0  0
 11 12  2  0  0  0
 22 26  1  0  0  0
 26 27  2  0  0  0
 26 28  1  0  0  0
 28 30  1  0  0  0
 30 31  1  0  0  0
 31 32  1  0  0  0
 32 33  1  0  0  0
 33 34  1  0  0  0
 33 35  1  0  0  0
 35 36  1  0  0  0
 25 20  1  0  0  0
 12  1  1  0  0  0
 36 30  1  0  0  0
 11  4  1  0  0  0
 47 42  1  0  0  0
 17 13  1  0  0  0
 18 19  1  0  0  0
 28 29  1  0  0  0
M  END
> <minimizedAffinity>
-7.86520

> <CNNscore>
0.2700948417

> <CNNaffinity>
7.5040168762

> <CNN_VS>
2.0267963409

> <CNNaffinity_variance>
0.0830844566

$$$$
[H]c1c(N([H])c2c([H])c(C([H])([H])[H])nn2[H])nc(N([H])c2c([H])c([H])c3c(c2[H])OC(F)(F)O3)nc1N1C([H])([H])C([H])([H])N(C([H])([H])[H])C([H])([H])C1([H])[H]


 35 39  0  0  0  0  0  0  0  0999 V2000
   55.1040   -4.5591   -7.4786 C   0  0  0  0  0  0  0  0  0  0  0  0
   55.8722   -4.5319   -8.6545 C   0  0  0  0  0  0  0  0  0  0  0  0
   55.3515   -4.0551   -9.8235 C   0  0  0  0  0  0  0  0  0  0  0  0
   54.0537   -3.6243   -9.7299 N   0  0  0  0  0  0  0  0  0  0  0  0
   53.3036   -3.6294   -8.6663 C   0  0  0  0  0  0  0  0  0  0  0  0
   53.8561   -4.1141   -7.5103 N   0  0  0  0  0  0  0  0  0  0  0  0
   56.3062   -7.2897   -2.9678 C   0  0  0  0  0  0  0  0  0  0  0  0
   56.7290   -6.3746   -3.9912 N   0  0  0  0  0  0  0  0  0  0  0  0
   56.6664   -6.9767   -5.2857 C   0  0  0  0  0  0  0  0  0  0  0  0
   56.8533   -5.9176   -6.3648 C   0  0  0  0  0  0  0  0  0  0  0  0
   55.6859   -5.0602   -6.2982 N   0  0  0  0  0  0  0  0  0  0  0  0
   55.1619   -4.7531   -4.9825 C   0  0  0  0  0  0  0  0  0  0  0  0
   56.1232   -5.0859   -3.8893 C   0  0  0  0  0  0  0  0  0  0  0  0
   55.9521   -3.9488  -11.0800 N   0  0  0  0  0  0  0  0  0  0  0  0
   55.2671   -3.6584  -11.8980 H   0  0  0  0  0  0  0  0  0  0  0  0
   57.2819   -4.1472  -11.4915 C   0  0  0  0  0  0  0  0  0  0  0  0
   57.8768   -3.4648  -12.5896 C   0  0  0  0  0  0  0  0  0  0  0  0
   59.1719   -3.8637  -12.7464 C   0  0  0  0  0  0  0  0  0  0  0  0
   60.1766   -3.4230  -13.7570 C   0  0  0  0  0  0  0  0  0  0  0  0
   59.3908   -4.7595  -11.7907 N   0  0  0  0  0  0  0  0  0  0  0  0
   58.2698   -4.9188  -11.0569 N   0  0  0  0  0  0  0  0  0  0  0  0
   58.2625   -5.5803  -10.2691 H   0  0  0  0  0  0  0  0  0  0  0  0
   51.9767   -3.1622   -8.6771 N   0  0  0  0  0  0  0  0  0  0  0  0
   51.6113   -2.8617   -9.6417 H   0  0  0  0  0  0  0  0  0  0  0  0
   51.1127   -3.0615   -7.5874 C   0  0  0  0  0  0  0  0  0  0  0  0
   50.1532   -2.1083   -7.3762 C   0  0  0  0  0  0  0  0  0  0  0  0
   49.3162   -2.1126   -6.2512 C   0  0  0  0  0  0  0  0  0  0  0  0
   49.4355   -3.0927   -5.3061 C   0  0  0  0  0  0  0  0  0  0  0  0
   48.7647   -3.3610   -4.1061 O   0  0  0  0  0  0  0  0  0  0  0  0
   49.0594   -4.7024   -3.7805 C   0  0  0  0  0  0  0  0  0  0  0  0
   49.1287   -4.8744   -2.4040 F   0  0  0  0  0  0  0  0  0  0  0  0
   48.0841   -5.5372   -4.3294 F   0  0  0  0  0  0  0  0  0  0  0  0
   50.3016   -4.9288   -4.3948 O   0  0  0  0  0  0  0  0  0  0  0  0
   50.3918   -4.0629   -5.4923 C   0  0  0  0  0  0  0  0  0  0  0  0
   51.2006   -4.0412   -6.6000 C   0  0  0  0  0  0  0  0  0  0  0  0
  7  8  1  0  0  0
  8  9  1  0  0  0
  9 10  1  0  0  0
 10 11  1  0  0  0
 11 12  1  0  0  0
 12 13  1  0  0  0
 11  1  1  0  0  0
  1  2  2  0  0  0
  2  3  1  0  0  0
  3 14  1  0  0  0
 14 16  1  0  0  0
 16 17  2  0  0  0
 17 18  1  0  0  0
 18 19  1  0  0  0
 18 20  2  0  0  0
 20 21  1  0  0  0
  3  4  2  0  0  0
  4  5  1  0  0  0
  5 23  1  0  0  0
 23 25  1  0  0  0
 25 26  2  0  0  0
 26 27  1  0  0  0
 27 28  2  0  0  0
 28 29  1  0  0  0
 29 30  1  0  0  0
 30 31  1  0  0  0
 30 32  1  0  0  0
 30 33  1  0  0  0
 33 34  1  0  0  0
 34 35  2  0  0  0
  5  6  2  0  0  0
 13  8  1  0  0  0
  6  1  1  0  0  0
 21 16  1  0  0  0
 35 25  1  0  0  0
 34 28  1  0  0  0
 14 15  1  0  0  0
 21 22  1  0  0  0
 23 24  1  0  0  0
M  END
> <minimizedAffinity>
-8.77801

> <CNNscore>
0.6724922061

> <CNNaffinity>
7.3894486427

> <CNN_VS>
4.9693465233

> <CNNaffinity_variance>
0.1923006773

$$$$
[H]c1c(N([H])c2c([H])c(C([H])([H])[H])nn2[H])nc(N([H])c2c([H])c([H])c3c(c2[H])OC(F)(F)O3)nc1N1C([H])([H])C([H])([H])N(C([H])([H])[H])C([H])([H])C1([H])[H]


 35 39  0  0  0  0  0  0  0  0999 V2000
   57.6164   -4.4758  -11.3822 C   0  0  0  0  0  0  0  0  0  0  0  0
   56.4617   -4.2162  -10.6253 C   0  0  0  0  0  0  0  0  0  0  0  0
   56.3629   -4.6325   -9.3284 C   0  0  0  0  0  0  0  0  0  0  0  0
   57.4649   -5.3025   -8.8645 N   0  0  0  0  0  0  0  0  0  0  0  0
   58.5546   -5.5663   -9.5256 C   0  0  0  0  0  0  0  0  0  0  0  0
   58.6216   -5.1349  -10.8240 N   0  0  0  0  0  0  0  0  0  0  0  0
   58.0005   -4.0212  -16.7576 C   0  0  0  0  0  0  0  0  0  0  0  0
   57.6507   -3.4166  -15.5024 N   0  0  0  0  0  0  0  0  0  0  0  0
   56.6142   -4.1475  -14.8438 C   0  0  0  0  0  0  0  0  0  0  0  0
   56.4543   -3.6530  -13.4117 C   0  0  0  0  0  0  0  0  0  0  0  0
   57.6704   -4.0259  -12.7156 N   0  0  0  0  0  0  0  0  0  0  0  0
   58.9157   -3.9137  -13.4480 C   0  0  0  0  0  0  0  0  0  0  0  0
   58.7799   -3.0956  -14.6900 C   0  0  0  0  0  0  0  0  0  0  0  0
   55.3091   -4.4706   -8.4263 N   0  0  0  0  0  0  0  0  0  0  0  0
   55.4176   -5.0340   -7.4810 H   0  0  0  0  0  0  0  0  0  0  0  0
   54.1270   -3.7134   -8.5078 C   0  0  0  0  0  0  0  0  0  0  0  0
   52.9505   -4.0069   -7.7627 C   0  0  0  0  0  0  0  0  0  0  0  0
   51.9723   -3.1007   -8.0506 C   0  0  0  0  0  0  0  0  0  0  0  0
   50.5835   -3.0127   -7.5137 C   0  0  0  0  0  0  0  0  0  0  0  0
   52.5030   -2.2682   -8.9390 N   0  0  0  0  0  0  0  0  0  0  0  0
   53.7735   -2.6389   -9.2011 N   0  0  0  0  0  0  0  0  0  0  0  0
   54.3367   -2.0997   -9.8723 H   0  0  0  0  0  0  0  0  0  0  0  0
   59.6334   -6.2644   -8.9532 N   0  0  0  0  0  0  0  0  0  0  0  0
   59.6145   -6.3250   -7.8808 H   0  0  0  0  0  0  0  0  0  0  0  0
   60.6914   -6.8741   -9.6264 C   0  0  0  0  0  0  0  0  0  0  0  0
   61.7948   -6.2647  -10.1604 C   0  0  0  0  0  0  0  0  0  0  0  0
   62.8186   -6.9780  -10.8002 C   0  0  0  0  0  0  0  0  0  0  0  0
   62.7450   -8.3380  -10.9142 C   0  0  0  0  0  0  0  0  0  0  0  0
   63.5850   -9.3042  -11.4822 O   0  0  0  0  0  0  0  0  0  0  0  0
   63.1755  -10.5455  -10.9496 C   0  0  0  0  0  0  0  0  0  0  0  0
   63.3418  -11.5631  -11.8802 F   0  0  0  0  0  0  0  0  0  0  0  0
   63.9075  -10.8169   -9.7920 F   0  0  0  0  0  0  0  0  0  0  0  0
   61.8214  -10.3436  -10.6381 O   0  0  0  0  0  0  0  0  0  0  0  0
   61.6471   -8.9764  -10.3874 C   0  0  0  0  0  0  0  0  0  0  0  0
   60.6563   -8.2605   -9.7650 C   0  0  0  0  0  0  0  0  0  0  0  0
  7  8  1  0  0  0
  8  9  1  0  0  0
  9 10  1  0  0  0
 10 11  1  0  0  0
 11 12  1  0  0  0
 12 13  1  0  0  0
 11  1  1  0  0  0
  1  2  2  0  0  0
  2  3  1  0  0  0
  3 14  1  0  0  0
 14 16  1  0  0  0
 16 17  2  0  0  0
 17 18  1  0  0  0
 18 19  1  0  0  0
 18 20  2  0  0  0
 20 21  1  0  0  0
  3  4  2  0  0  0
  4  5  1  0  0  0
  5 23  1  0  0  0
 23 25  1  0  0  0
 25 26  2  0  0  0
 26 27  1  0  0  0
 27 28  2  0  0  0
 28 29  1  0  0  0
 29 30  1  0  0  0
 30 31  1  0  0  0
 30 32  1  0  0  0
 30 33  1  0  0  0
 33 34  1  0  0  0
 34 35  2  0  0  0
  5  6  2  0  0  0
 13  8  1  0  0  0
  6  1  1  0  0  0
 21 16  1  0  0  0
 35 25  1  0  0  0
 34 28  1  0  0  0
 14 15  1  0  0  0
 21 22  1  0  0  0
 23 24  1  0  0  0
M  END
> <minimizedAffinity>
-8.57382

> <CNNscore>
0.4735591412

> <CNNaffinity>
6.2685585022

> <CNN_VS>
2.9685332775

> <CNNaffinity_variance>
0.0421264581

$$$$
[H]c1c(N([H])c2c([H])c(C([H])([H])[H])nn2[H])nc(N([H])c2c([H])c([H])c3c(c2[H])OC(F)(F)O3)nc1N1C([H])([H])C([H])([H])N(C([H])([H])[H])C([H])([H])C1([H])[H]


 35 39  0  0  0  0  0  0  0  0999 V2000
   56.0319   -5.3623   -6.3003 C   0  0  0  0  0  0  0  0  0  0  0  0
   57.0214   -5.2295   -7.2887 C   0  0  0  0  0  0  0  0  0  0  0  0
   56.6939   -4.8893   -8.5701 C   0  0  0  0  0  0  0  0  0  0  0  0
   55.3527   -4.6995   -8.7791 N   0  0  0  0  0  0  0  0  0  0  0  0
   54.4011   -4.8106   -7.8980 C   0  0  0  0  0  0  0  0  0  0  0  0
   54.7634   -5.1530   -6.6222 N   0  0  0  0  0  0  0  0  0  0  0  0
   56.2777   -7.1168   -1.1905 C   0  0  0  0  0  0  0  0  0  0  0  0
   56.9764   -6.6782   -2.3664 N   0  0  0  0  0  0  0  0  0  0  0  0
   56.7039   -7.5296   -3.4814 C   0  0  0  0  0  0  0  0  0  0  0  0
   57.2287   -6.8962   -4.7637 C   0  0  0  0  0  0  0  0  0  0  0  0
   56.4199   -5.7149   -4.9933 N   0  0  0  0  0  0  0  0  0  0  0  0
   56.0407   -4.9341   -3.8329 C   0  0  0  0  0  0  0  0  0  0  0  0
   56.8420   -5.2799   -2.6211 C   0  0  0  0  0  0  0  0  0  0  0  0
   57.5263   -4.7116   -9.6774 N   0  0  0  0  0  0  0  0  0  0  0  0
   58.5921   -4.9457   -9.4982 H   0  0  0  0  0  0  0  0  0  0  0  0
   57.2474   -4.2847  -10.9878 C   0  0  0  0  0  0  0  0  0  0  0  0
   58.2260   -4.2157  -12.0188 C   0  0  0  0  0  0  0  0  0  0  0  0
   57.6598   -3.7676  -13.1763 C   0  0  0  0  0  0  0  0  0  0  0  0
   58.2939   -3.5385  -14.5069 C   0  0  0  0  0  0  0  0  0  0  0  0
   56.3786   -3.5610  -12.8939 N   0  0  0  0  0  0  0  0  0  0  0  0
   56.1467   -3.8692  -11.6010 N   0  0  0  0  0  0  0  0  0  0  0  0
   55.2001   -3.7669  -11.2115 H   0  0  0  0  0  0  0  0  0  0  0  0
   53.0485   -4.5933   -8.2175 N   0  0  0  0  0  0  0  0  0  0  0  0
   52.8634   -4.3257   -9.2414 H   0  0  0  0  0  0  0  0  0  0  0  0
   51.9554   -4.6960   -7.3580 C   0  0  0  0  0  0  0  0  0  0  0  0
   51.5071   -5.8203   -6.7185 C   0  0  0  0  0  0  0  0  0  0  0  0
   50.4054   -5.8095   -5.8511 C   0  0  0  0  0  0  0  0  0  0  0  0
   49.7271   -4.6474   -5.6113 C   0  0  0  0  0  0  0  0  0  0  0  0
   48.6189   -4.3246   -4.8179 O   0  0  0  0  0  0  0  0  0  0  0  0
   48.6315   -2.9205   -4.6747 C   0  0  0  0  0  0  0  0  0  0  0  0
   47.3385   -2.4181   -4.6038 F   0  0  0  0  0  0  0  0  0  0  0  0
   49.3529   -2.5782   -3.5294 F   0  0  0  0  0  0  0  0  0  0  0  0
   49.2988   -2.4744   -5.8268 O   0  0  0  0  0  0  0  0  0  0  0  0
   50.1554   -3.5026   -6.2411 C   0  0  0  0  0  0  0  0  0  0  0  0
   51.2356   -3.5340   -7.0859 C   0  0  0  0  0  0  0  0  0  0  0  0
  7  8  1  0  0  0
  8  9  1  0  0  0
  9 10  1  0  0  0
 10 11  1  0  0  0
 11 12  1  0  0  0
 12 13  1  0  0  0
 11  1  1  0  0  0
  1  2  2  0  0  0
  2  3  1  0  0  0
  3 14  1  0  0  0
 14 16  1  0  0  0
 16 17  2  0  0  0
 17 18  1  0  0  0
 18 19  1  0  0  0
 18 20  2  0  0  0
 20 21  1  0  0  0
  3  4  2  0  0  0
  4  5  1  0  0  0
  5 23  1  0  0  0
 23 25  1  0  0  0
 25 26  2  0  0  0
 26 27  1  0  0  0
 27 28  2  0  0  0
 28 29  1  0  0  0
 29 30  1  0  0  0
 30 31  1  0  0  0
 30 32  1  0  0  0
 30 33  1  0  0  0
 33 34  1  0  0  0
 34 35  2  0  0  0
  5  6  2  0  0  0
 13  8  1  0  0  0
  6  1  1  0  0  0
 21 16  1  0  0  0
 35 25  1  0  0  0
 34 28  1  0  0  0
 14 15  1  0  0  0
 21 22  1  0  0  0
 23 24  1  0  0  0
M  END
> <minimizedAffinity>
-8.98126

> <CNNscore>
0.4646297991

> <CNNaffinity>
7.1848630905

> <CNN_VS>
3.3383014202

> <CNNaffinity_variance>
0.1249759048

$$$$
[H]c1c(N([H])c2c([H])c(C([H])([H])[H])nn2[H])nc(N([H])c2c([H])c([H])c3c(c2[H])OC(F)(F)O3)nc1N1C([H])([H])C([H])([H])N(C([H])([H])[H])C([H])([H])C1([H])[H]


 35 39  0  0  0  0  0  0  0  0999 V2000
   57.9106   -4.4511  -11.5480 C   0  0  0  0  0  0  0  0  0  0  0  0
   56.9075   -3.9496  -10.7020 C   0  0  0  0  0  0  0  0  0  0  0  0
   56.7689   -4.4122   -9.4246 C   0  0  0  0  0  0  0  0  0  0  0  0
   57.6754   -5.3778   -9.0718 N   0  0  0  0  0  0  0  0  0  0  0  0
   58.6198   -5.8729   -9.8182 C   0  0  0  0  0  0  0  0  0  0  0  0
   58.7317   -5.3872  -11.0941 N   0  0  0  0  0  0  0  0  0  0  0  0
   58.5565   -3.7466  -16.8711 C   0  0  0  0  0  0  0  0  0  0  0  0
   58.1114   -3.2140  -15.6135 N   0  0  0  0  0  0  0  0  0  0  0  0
   57.0785   -4.0203  -15.0432 C   0  0  0  0  0  0  0  0  0  0  0  0
   56.8188   -3.5964  -13.6031 C   0  0  0  0  0  0  0  0  0  0  0  0
   58.0131   -3.9419  -12.8569 N   0  0  0  0  0  0  0  0  0  0  0  0
   59.2885   -3.7399  -13.5145 C   0  0  0  0  0  0  0  0  0  0  0  0
   59.1788   -2.8761  -14.7277 C   0  0  0  0  0  0  0  0  0  0  0  0
   55.8443   -4.0410   -8.4458 N   0  0  0  0  0  0  0  0  0  0  0  0
   56.1635   -4.2430   -7.4065 H   0  0  0  0  0  0  0  0  0  0  0  0
   54.5714   -3.4524   -8.5486 C   0  0  0  0  0  0  0  0  0  0  0  0
   53.4355   -3.8994   -7.8169 C   0  0  0  0  0  0  0  0  0  0  0  0
   52.3471   -3.1365   -8.1244 C   0  0  0  0  0  0  0  0  0  0  0  0
   50.9518   -3.2356   -7.6066 C   0  0  0  0  0  0  0  0  0  0  0  0
   52.7720   -2.2444   -9.0118 N   0  0  0  0  0  0  0  0  0  0  0  0
   54.0847   -2.4399   -9.2544 N   0  0  0  0  0  0  0  0  0  0  0  0
   54.5787   -1.8327   -9.9220 H   0  0  0  0  0  0  0  0  0  0  0  0
   59.5022   -6.8667   -9.3573 N   0  0  0  0  0  0  0  0  0  0  0  0
   59.0356   -7.7969   -9.0904 H   0  0  0  0  0  0  0  0  0  0  0  0
   60.8865   -6.7650   -9.2243 C   0  0  0  0  0  0  0  0  0  0  0  0
   61.8095   -6.6550  -10.2292 C   0  0  0  0  0  0  0  0  0  0  0  0
   63.1848   -6.5337   -9.9841 C   0  0  0  0  0  0  0  0  0  0  0  0
   63.6590   -6.5216   -8.7023 C   0  0  0  0  0  0  0  0  0  0  0  0
   64.9420   -6.4163   -8.1504 O   0  0  0  0  0  0  0  0  0  0  0  0
   64.7611   -6.0721   -6.7936 C   0  0  0  0  0  0  0  0  0  0  0  0
   65.7544   -6.6354   -6.0029 F   0  0  0  0  0  0  0  0  0  0  0  0
   64.7625   -4.6819   -6.6643 F   0  0  0  0  0  0  0  0  0  0  0  0
   63.4943   -6.5926   -6.4843 O   0  0  0  0  0  0  0  0  0  0  0  0
   62.7540   -6.6312   -7.6730 C   0  0  0  0  0  0  0  0  0  0  0  0
   61.4125   -6.7488   -7.9337 C   0  0  0  0  0  0  0  0  0  0  0  0
  7  8  1  0  0  0
  8  9  1  0  0  0
  9 10  1  0  0  0
 10 11  1  0  0  0
 11 12  1  0  0  0
 12 13  1  0  0  0
 11  1  1  0  0  0
  1  2  2  0  0  0
  2  3  1  0  0  0
  3 14  1  0  0  0
 14 16  1  0  0  0
 16 17  2  0  0  0
 17 18  1  0  0  0
 18 19  1  0  0  0
 18 20  2  0  0  0
 20 21  1  0  0  0
  3  4  2  0  0  0
  4  5  1  0  0  0
  5 23  1  0  0  0
 23 25  1  0  0  0
 25 26  2  0  0  0
 26 27  1  0  0  0
 27 28  2  0  0  0
 28 29  1  0  0  0
 29 30  1  0  0  0
 30 31  1  0  0  0
 30 32  1  0  0  0
 30 33  1  0  0  0
 33 34  1  0  0  0
 34 35  2  0  0  0
  5  6  2  0  0  0
 13  8  1  0  0  0
  6  1  1  0  0  0
 21 16  1  0  0  0
 35 25  1  0  0  0
 34 28  1  0  0  0
 14 15  1  0  0  0
 21 22  1  0  0  0
 23 24  1  0  0  0
M  END
> <minimizedAffinity>
-7.93280

> <CNNscore>
0.4336893857

> <CNNaffinity>
6.2278966904

> <CNN_VS>
2.7009727955

> <CNNaffinity_variance>
0.0158491209

$$$$
[H]c1c(N([H])c2c([H])c(C([H])([H])[H])nn2[H])nc(N([H])c2c([H])c([H])c3c(c2[H])OC(F)(F)O3)nc1N1C([H])([H])C([H])([H])N(C([H])([H])[H])C([H])([H])C1([H])[H]


 35 39  0  0  0  0  0  0  0  0999 V2000
   56.6451   -4.0746  -10.9707 C   0  0  0  0  0  0  0  0  0  0  0  0
   57.2232   -4.6883   -9.8470 C   0  0  0  0  0  0  0  0  0  0  0  0
   56.5542   -4.7508   -8.6581 C   0  0  0  0  0  0  0  0  0  0  0  0
   55.3108   -4.1746   -8.6784 N   0  0  0  0  0  0  0  0  0  0  0  0
   54.7343   -3.5959   -9.6917 C   0  0  0  0  0  0  0  0  0  0  0  0
   55.4322   -3.5501  -10.8694 N   0  0  0  0  0  0  0  0  0  0  0  0
   59.4316   -2.6323  -15.3757 C   0  0  0  0  0  0  0  0  0  0  0  0
   59.0039   -3.6783  -14.4889 N   0  0  0  0  0  0  0  0  0  0  0  0
   59.4617   -3.4489  -13.1548 C   0  0  0  0  0  0  0  0  0  0  0  0
   58.7753   -4.4111  -12.1935 C   0  0  0  0  0  0  0  0  0  0  0  0
   57.3750   -4.0354  -12.1744 N   0  0  0  0  0  0  0  0  0  0  0  0
   56.7800   -3.6270  -13.4310 C   0  0  0  0  0  0  0  0  0  0  0  0
   57.6177   -3.9974  -14.6105 C   0  0  0  0  0  0  0  0  0  0  0  0
   56.9585   -5.3129   -7.4451 N   0  0  0  0  0  0  0  0  0  0  0  0
   58.0533   -5.3505   -7.2939 H   0  0  0  0  0  0  0  0  0  0  0  0
   56.2153   -5.8430   -6.3756 C   0  0  0  0  0  0  0  0  0  0  0  0
   55.7961   -5.0771   -5.2517 C   0  0  0  0  0  0  0  0  0  0  0  0
   55.0953   -5.8610   -4.3825 C   0  0  0  0  0  0  0  0  0  0  0  0
   54.4674   -5.4935   -3.0804 C   0  0  0  0  0  0  0  0  0  0  0  0
   55.0700   -7.0711   -4.9293 N   0  0  0  0  0  0  0  0  0  0  0  0
   55.7333   -7.0488   -6.1039 N   0  0  0  0  0  0  0  0  0  0  0  0
   55.8118   -7.9078   -6.6646 H   0  0  0  0  0  0  0  0  0  0  0  0
   53.4481   -3.0326   -9.6067 N   0  0  0  0  0  0  0  0  0  0  0  0
   53.1512   -2.4531  -10.4613 H   0  0  0  0  0  0  0  0  0  0  0  0
   52.5445   -3.1570   -8.5521 C   0  0  0  0  0  0  0  0  0  0  0  0
   51.4662   -2.3567   -8.2861 C   0  0  0  0  0  0  0  0  0  0  0  0
   50.6017   -2.5852   -7.2060 C   0  0  0  0  0  0  0  0  0  0  0  0
   50.8140   -3.6402   -6.3633 C   0  0  0  0  0  0  0  0  0  0  0  0
   50.1452   -4.1170   -5.2288 O   0  0  0  0  0  0  0  0  0  0  0  0
   50.5965   -5.4397   -5.0313 C   0  0  0  0  0  0  0  0  0  0  0  0
   50.6438   -5.7502   -3.6784 F   0  0  0  0  0  0  0  0  0  0  0  0
   49.7520   -6.3228   -5.7067 F   0  0  0  0  0  0  0  0  0  0  0  0
   51.8759   -5.4446   -5.6097 O   0  0  0  0  0  0  0  0  0  0  0  0
   51.8905   -4.4603   -6.6064 C   0  0  0  0  0  0  0  0  0  0  0  0
   52.7243   -4.2199   -7.6687 C   0  0  0  0  0  0  0  0  0  0  0  0
  7  8  1  0  0  0
  8  9  1  0  0  0
  9 10  1  0  0  0
 10 11  1  0  0  0
 11 12  1  0  0  0
 12 13  1  0  0  0
 11  1  1  0  0  0
  1  2  2  0  0  0
  2  3  1  0  0  0
  3 14  1  0  0  0
 14 16  1  0  0  0
 16 17  2  0  0  0
 17 18  1  0  0  0
 18 19  1  0  0  0
 18 20  2  0  0  0
 20 21  1  0  0  0
  3  4  2  0  0  0
  4  5  1  0  0  0
  5 23  1  0  0  0
 23 25  1  0  0  0
 25 26  2  0  0  0
 26 27  1  0  0  0
 27 28  2  0  0  0
 28 29  1  0  0  0
 29 30  1  0  0  0
 30 31  1  0  0  0
 30 32  1  0  0  0
 30 33  1  0  0  0
 33 34  1  0  0  0
 34 35  2  0  0  0
  5  6  2  0  0  0
 13  8  1  0  0  0
  6  1  1  0  0  0
 21 16  1  0  0  0
 35 25  1  0  0  0
 34 28  1  0  0  0
 14 15  1  0  0  0
 21 22  1  0  0  0
 23 24  1  0  0  0
M  END
> <minimizedAffinity>
-9.74629

> <CNNscore>
0.3854534626

> <CNNaffinity>
7.0365018845

> <CNN_VS>
2.7122440338

> <CNNaffinity_variance>
0.0414308310

$$$$
[H]c1c(N([H])c2c([H])c(C([H])([H])[H])nn2[H])nc(N([H])c2c([H])c([H])c3c(c2[H])OC(F)(F)O3)nc1N1C([H])([H])C([H])([H])N(C([H])([H])[H])C([H])([H])C1([H])[H]


 35 39  0  0  0  0  0  0  0  0999 V2000
   54.8286   -5.7084   -4.8529 C   0  0  0  0  0  0  0  0  0  0  0  0
   55.7628   -5.0877   -5.6989 C   0  0  0  0  0  0  0  0  0  0  0  0
   55.3732   -4.5127   -6.8747 C   0  0  0  0  0  0  0  0  0  0  0  0
   54.0295   -4.6026   -7.1298 N   0  0  0  0  0  0  0  0  0  0  0  0
   53.1277   -5.1657   -6.3790 C   0  0  0  0  0  0  0  0  0  0  0  0
   53.5516   -5.7331   -5.2065 N   0  0  0  0  0  0  0  0  0  0  0  0
   57.2643   -8.6819   -1.0484 C   0  0  0  0  0  0  0  0  0  0  0  0
   56.4846   -7.5216   -1.3789 N   0  0  0  0  0  0  0  0  0  0  0  0
   57.1868   -6.6621   -2.2792 C   0  0  0  0  0  0  0  0  0  0  0  0
   56.2467   -5.5935   -2.8226 C   0  0  0  0  0  0  0  0  0  0  0  0
   55.2797   -6.2871   -3.6510 N   0  0  0  0  0  0  0  0  0  0  0  0
   54.8126   -7.5780   -3.1870 C   0  0  0  0  0  0  0  0  0  0  0  0
   55.1403   -7.8252   -1.7511 C   0  0  0  0  0  0  0  0  0  0  0  0
   56.1453   -3.8566   -7.8360 N   0  0  0  0  0  0  0  0  0  0  0  0
   56.2502   -2.7667   -7.6813 H   0  0  0  0  0  0  0  0  0  0  0  0
   56.8169   -4.3396   -8.9731 C   0  0  0  0  0  0  0  0  0  0  0  0
   56.4933   -3.9510  -10.3034 C   0  0  0  0  0  0  0  0  0  0  0  0
   57.3140   -4.5826  -11.1914 C   0  0  0  0  0  0  0  0  0  0  0  0
   57.3437   -4.4844  -12.6795 C   0  0  0  0  0  0  0  0  0  0  0  0
   58.1233   -5.3388  -10.4586 N   0  0  0  0  0  0  0  0  0  0  0  0
   57.8213   -5.1877   -9.1524 N   0  0  0  0  0  0  0  0  0  0  0  0
   58.3539   -5.7045   -8.4399 H   0  0  0  0  0  0  0  0  0  0  0  0
   51.7672   -5.2037   -6.7345 N   0  0  0  0  0  0  0  0  0  0  0  0
   51.5331   -5.8537   -7.5573 H   0  0  0  0  0  0  0  0  0  0  0  0
   50.7220   -4.5034   -6.1334 C   0  0  0  0  0  0  0  0  0  0  0  0
   50.2430   -3.2693   -6.4820 C   0  0  0  0  0  0  0  0  0  0  0  0
   49.1649   -2.6616   -5.8228 C   0  0  0  0  0  0  0  0  0  0  0  0
   48.5432   -3.2978   -4.7851 C   0  0  0  0  0  0  0  0  0  0  0  0
   47.4699   -2.9592   -3.9513 O   0  0  0  0  0  0  0  0  0  0  0  0
   47.0473   -4.1612   -3.3441 C   0  0  0  0  0  0  0  0  0  0  0  0
   46.5825   -3.9288   -2.0560 F   0  0  0  0  0  0  0  0  0  0  0  0
   46.0505   -4.7491   -4.1251 F   0  0  0  0  0  0  0  0  0  0  0  0
   48.2036   -4.9577   -3.3425 O   0  0  0  0  0  0  0  0  0  0  0  0
   49.0042   -4.5385   -4.4130 C   0  0  0  0  0  0  0  0  0  0  0  0
   50.0601   -5.1162   -5.0709 C   0  0  0  0  0  0  0  0  0  0  0  0
  7  8  1  0  0  0
  8  9  1  0  0  0
  9 10  1  0  0  0
 10 11  1  0  0  0
 11 12  1  0  0  0
 12 13  1  0  0  0
 11  1  1  0  0  0
  1  2  2  0  0  0
  2  3  1  0  0  0
  3 14  1  0  0  0
 14 16  1  0  0  0
 16 17  2  0  0  0
 17 18  1  0  0  0
 18 19  1  0  0  0
 18 20  2  0  0  0
 20 21  1  0  0  0
  3  4  2  0  0  0
  4  5  1  0  0  0
  5 23  1  0  0  0
 23 25  1  0  0  0
 25 26  2  0  0  0
 26 27  1  0  0  0
 27 28  2  0  0  0
 28 29  1  0  0  0
 29 30  1  0  0  0
 30 31  1  0  0  0
 30 32  1  0  0  0
 30 33  1  0  0  0
 33 34  1  0  0  0
 34 35  2  0  0  0
  5  6  2  0  0  0
 13  8  1  0  0  0
  6  1  1  0  0  0
 21 16  1  0  0  0
 35 25  1  0  0  0
 34 28  1  0  0  0
 14 15  1  0  0  0
 21 22  1  0  0  0
 23 24  1  0  0  0
M  END
> <minimizedAffinity>
-8.22809

> <CNNscore>
0.3760207593

> <CNNaffinity>
7.1291565895

> <CNN_VS>
2.6807107925

> <CNNaffinity_variance>
0.3282776475

$$$$
[H]c1c(N([H])c2c([H])c(C([H])([H])[H])nn2[H])nc(N([H])c2c([H])c([H])c3c(c2[H])OC(F)(F)O3)nc1N1C([H])([H])C([H])([H])N(C([H])([H])[H])C([H])([H])C1([H])[H]


 35 39  0  0  0  0  0  0  0  0999 V2000
   56.1469   -4.8825   -8.8478 C   0  0  0  0  0  0  0  0  0  0  0  0
   56.1368   -4.2832  -10.1184 C   0  0  0  0  0  0  0  0  0  0  0  0
   57.2572   -4.2716  -10.8992 C   0  0  0  0  0  0  0  0  0  0  0  0
   58.3464   -4.8817  -10.3336 N   0  0  0  0  0  0  0  0  0  0  0  0
   58.4043   -5.4489   -9.1636 C   0  0  0  0  0  0  0  0  0  0  0  0
   57.2633   -5.4433   -8.4056 N   0  0  0  0  0  0  0  0  0  0  0  0
   51.2979   -5.8518   -6.6579 C   0  0  0  0  0  0  0  0  0  0  0  0
   52.5629   -5.1765   -6.5747 N   0  0  0  0  0  0  0  0  0  0  0  0
   53.6474   -6.1062   -6.5348 C   0  0  0  0  0  0  0  0  0  0  0  0
   54.9707   -5.3746   -6.7217 C   0  0  0  0  0  0  0  0  0  0  0  0
   54.9662   -4.8687   -8.0805 N   0  0  0  0  0  0  0  0  0  0  0  0
   53.7109   -4.3597   -8.5953 C   0  0  0  0  0  0  0  0  0  0  0  0
   52.7055   -4.1149   -7.5185 C   0  0  0  0  0  0  0  0  0  0  0  0
   57.4401   -3.7316  -12.1742 N   0  0  0  0  0  0  0  0  0  0  0  0
   58.0658   -2.8205  -12.2061 H   0  0  0  0  0  0  0  0  0  0  0  0
   56.9664   -4.1440  -13.4323 C   0  0  0  0  0  0  0  0  0  0  0  0
   57.2643   -3.4654  -14.6473 C   0  0  0  0  0  0  0  0  0  0  0  0
   56.6670   -4.0974  -15.6984 C   0  0  0  0  0  0  0  0  0  0  0  0
   56.6996   -3.7482  -17.1482 C   0  0  0  0  0  0  0  0  0  0  0  0
   56.0184   -5.1315  -15.1752 N   0  0  0  0  0  0  0  0  0  0  0  0
   56.2018   -5.1492  -13.8387 N   0  0  0  0  0  0  0  0  0  0  0  0
   55.7664   -5.8886  -13.2712 H   0  0  0  0  0  0  0  0  0  0  0  0
   59.5783   -6.0499   -8.6742 N   0  0  0  0  0  0  0  0  0  0  0  0
   59.7498   -5.9161   -7.6221 H   0  0  0  0  0  0  0  0  0  0  0  0
   60.5106   -6.7879   -9.4025 C   0  0  0  0  0  0  0  0  0  0  0  0
   60.5702   -8.1492   -9.5330 C   0  0  0  0  0  0  0  0  0  0  0  0
   61.5408   -8.7933  -10.3137 C   0  0  0  0  0  0  0  0  0  0  0  0
   62.4818   -8.0640  -10.9851 C   0  0  0  0  0  0  0  0  0  0  0  0
   63.5509   -8.4081  -11.8221 O   0  0  0  0  0  0  0  0  0  0  0  0
   63.9061   -7.2298  -12.5132 C   0  0  0  0  0  0  0  0  0  0  0  0
   65.2730   -7.1910  -12.7562 F   0  0  0  0  0  0  0  0  0  0  0  0
   63.1940   -7.1638  -13.7124 F   0  0  0  0  0  0  0  0  0  0  0  0
   63.5039   -6.2013  -11.6461 O   0  0  0  0  0  0  0  0  0  0  0  0
   62.4461   -6.6943  -10.8713 C   0  0  0  0  0  0  0  0  0  0  0  0
   61.4882   -6.0832  -10.1028 C   0  0  0  0  0  0  0  0  0  0  0  0
  7  8  1  0  0  0
  8  9  1  0  0  0
  9 10  1  0  0  0
 10 11  1  0  0  0
 11 12  1  0  0  0
 12 13  1  0  0  0
 11  1  1  0  0  0
  1  2  2  0  0  0
  2  3  1  0  0  0
  3 14  1  0  0  0
 14 16  1  0  0  0
 16 17  2  0  0  0
 17 18  1  0  0  0
 18 19  1  0  0  0
 18 20  2  0  0  0
 20 21  1  0  0  0
  3  4  2  0  0  0
  4  5  1  0  0  0
  5 23  1  0  0  0
 23 25  1  0  0  0
 25 26  2  0  0  0
 26 27  1  0  0  0
 27 28  2  0  0  0
 28 29  1  0  0  0
 29 30  1  0  0  0
 30 31  1  0  0  0
 30 32  1  0  0  0
 30 33  1  0  0  0
 33 34  1  0  0  0
 34 35  2  0  0  0
  5  6  2  0  0  0
 13  8  1  0  0  0
  6  1  1  0  0  0
 21 16  1  0  0  0
 35 25  1  0  0  0
 34 28  1  0  0  0
 14 15  1  0  0  0
 21 22  1  0  0  0
 23 24  1  0  0  0
M  END
> <minimizedAffinity>
-7.77253

> <CNNscore>
0.3039038777

> <CNNaffinity>
5.8415937424

> <CNN_VS>
1.7752829790

> <CNNaffinity_variance>
0.3066249788

$$$$
[H]c1c(N([H])c2c([H])c(C([H])([H])[H])nn2[H])nc(N([H])c2c([H])c([H])c3c(c2[H])OC(F)(F)O3)nc1N1C([H])([H])C([H])([H])N(C([H])([H])[H])C([H])([H])C1([H])[H]


 35 39  0  0  0  0  0  0  0  0999 V2000
   55.0822   -6.2699   -4.9004 C   0  0  0  0  0  0  0  0  0  0  0  0
   53.7164   -6.2331   -5.2270 C   0  0  0  0  0  0  0  0  0  0  0  0
   53.2623   -5.4721   -6.2661 C   0  0  0  0  0  0  0  0  0  0  0  0
   54.2411   -4.7774   -6.9278 N   0  0  0  0  0  0  0  0  0  0  0  0
   55.5155   -4.7796   -6.6632 C   0  0  0  0  0  0  0  0  0  0  0  0
   55.9381   -5.5533   -5.6148 N   0  0  0  0  0  0  0  0  0  0  0  0
   56.9144   -8.1825   -0.1851 C   0  0  0  0  0  0  0  0  0  0  0  0
   56.2454   -8.4387   -1.4302 N   0  0  0  0  0  0  0  0  0  0  0  0
   55.0599   -7.6505   -1.5555 C   0  0  0  0  0  0  0  0  0  0  0  0
   54.5242   -7.7343   -2.9793 C   0  0  0  0  0  0  0  0  0  0  0  0
   55.5012   -7.0701   -3.8200 N   0  0  0  0  0  0  0  0  0  0  0  0
   56.8998   -7.2690   -3.4969 C   0  0  0  0  0  0  0  0  0  0  0  0
   57.1162   -8.4125   -2.5611 C   0  0  0  0  0  0  0  0  0  0  0  0
   51.9578   -5.3086   -6.7377 N   0  0  0  0  0  0  0  0  0  0  0  0
   51.5706   -6.1563   -7.3329 H   0  0  0  0  0  0  0  0  0  0  0  0
   51.0441   -4.2502   -6.5890 C   0  0  0  0  0  0  0  0  0  0  0  0
   50.0830   -4.1806   -5.5416 C   0  0  0  0  0  0  0  0  0  0  0  0
   49.3407   -3.0420   -5.6585 C   0  0  0  0  0  0  0  0  0  0  0  0
   48.2276   -2.5516   -4.7951 C   0  0  0  0  0  0  0  0  0  0  0  0
   49.8090   -2.4156   -6.7320 N   0  0  0  0  0  0  0  0  0  0  0  0
   50.8129   -3.1369   -7.2725 N   0  0  0  0  0  0  0  0  0  0  0  0
   51.2927   -2.7956   -8.1161 H   0  0  0  0  0  0  0  0  0  0  0  0
   56.4415   -4.0268   -7.4080 N   0  0  0  0  0  0  0  0  0  0  0  0
   56.7823   -3.1276   -6.9289 H   0  0  0  0  0  0  0  0  0  0  0  0
   56.9502   -4.3313   -8.6700 C   0  0  0  0  0  0  0  0  0  0  0  0
   57.9606   -5.2059   -8.9670 C   0  0  0  0  0  0  0  0  0  0  0  0
   58.3818   -5.4584  -10.2804 C   0  0  0  0  0  0  0  0  0  0  0  0
   57.7823   -4.8231  -11.3316 C   0  0  0  0  0  0  0  0  0  0  0  0
   57.9741   -4.8637  -12.7185 O   0  0  0  0  0  0  0  0  0  0  0  0
   56.8147   -4.3010  -13.2940 C   0  0  0  0  0  0  0  0  0  0  0  0
   57.1238   -3.6160  -14.4621 F   0  0  0  0  0  0  0  0  0  0  0  0
   55.8874   -5.3126  -13.5509 F   0  0  0  0  0  0  0  0  0  0  0  0
   56.3344   -3.4364  -12.2973 O   0  0  0  0  0  0  0  0  0  0  0  0
   56.7648   -3.9385  -11.0623 C   0  0  0  0  0  0  0  0  0  0  0  0
   56.3672   -3.7054   -9.7703 C   0  0  0  0  0  0  0  0  0  0  0  0
  7  8  1  0  0  0
  8  9  1  0  0  0
  9 10  1  0  0  0
 10 11  1  0  0  0
 11 12  1  0  0  0
 12 13  1  0  0  0
 11  1  1  0  0  0
  1  2  2  0  0  0
  2  3  1  0  0  0
  3 14  1  0  0  0
 14 16  1  0  0  0
 16 17  2  0  0  0
 17 18  1  0  0  0
 18 19  1  0  0  0
 18 20  2  0  0  0
 20 21  1  0  0  0
  3  4  2  0  0  0
  4  5  1  0  0  0
  5 23  1  0  0  0
 23 25  1  0  0  0
 25 26  2  0  0  0
 26 27  1  0  0  0
 27 28  2  0  0  0
 28 29  1  0  0  0
 29 30  1  0  0  0
 30 31  1  0  0  0
 30 32  1  0  0  0
 30 33  1  0  0  0
 33 34  1  0  0  0
 34 35  2  0  0  0
  5  6  2  0  0  0
 13  8  1  0  0  0
  6  1  1  0  0  0
 21 16  1  0  0  0
 35 25  1  0  0  0
 34 28  1  0  0  0
 14 15  1  0  0  0
 21 22  1  0  0  0
 23 24  1  0  0  0
M  END
> <minimizedAffinity>
-10.26127

> <CNNscore>
0.2880153060

> <CNNaffinity>
7.0038566589

> <CNN_VS>
2.0172178745

> <CNNaffinity_variance>
0.0828267634

$$$$
[H]c1c(N([H])c2c([H])c(C([H])([H])[H])nn2[H])nc(N([H])c2c([H])c([H])c3c(c2[H])OC(F)(F)O3)nc1N1C([H])([H])C([H])([H])N(C([H])([H])[H])C([H])([H])C1([H])[H]


 35 39  0  0  0  0  0  0  0  0999 V2000
   56.2894   -4.2608  -10.5922 C   0  0  0  0  0  0  0  0  0  0  0  0
   56.9946   -4.8712   -9.5416 C   0  0  0  0  0  0  0  0  0  0  0  0
   56.4589   -4.9501   -8.2879 C   0  0  0  0  0  0  0  0  0  0  0  0
   55.2121   -4.3932   -8.1700 N   0  0  0  0  0  0  0  0  0  0  0  0
   54.5209   -3.8184   -9.1113 C   0  0  0  0  0  0  0  0  0  0  0  0
   55.0868   -3.7559  -10.3571 N   0  0  0  0  0  0  0  0  0  0  0  0
   58.6042   -2.7570  -15.2430 C   0  0  0  0  0  0  0  0  0  0  0  0
   58.2574   -3.8171  -14.3377 N   0  0  0  0  0  0  0  0  0  0  0  0
   58.8618   -3.6261  -13.0569 C   0  0  0  0  0  0  0  0  0  0  0  0
   58.2675   -4.6003  -12.0476 C   0  0  0  0  0  0  0  0  0  0  0  0
   56.8844   -4.2043  -11.8673 N   0  0  0  0  0  0  0  0  0  0  0  0
   56.1632   -3.7574  -13.0421 C   0  0  0  0  0  0  0  0  0  0  0  0
   56.8608   -4.1124  -14.3139 C   0  0  0  0  0  0  0  0  0  0  0  0
   57.0002   -5.5118   -7.1294 N   0  0  0  0  0  0  0  0  0  0  0  0
   58.1004   -5.6225   -7.1384 H   0  0  0  0  0  0  0  0  0  0  0  0
   56.3900   -5.9647   -5.9462 C   0  0  0  0  0  0  0  0  0  0  0  0
   55.7634   -5.1025   -5.0032 C   0  0  0  0  0  0  0  0  0  0  0  0
   55.2635   -5.8277   -3.9615 C   0  0  0  0  0  0  0  0  0  0  0  0
   54.5317   -5.3545   -2.7509 C   0  0  0  0  0  0  0  0  0  0  0  0
   55.5588   -7.0944   -4.2302 N   0  0  0  0  0  0  0  0  0  0  0  0
   56.2229   -7.1633   -5.4026 N   0  0  0  0  0  0  0  0  0  0  0  0
   56.5300   -8.0759   -5.7649 H   0  0  0  0  0  0  0  0  0  0  0  0
   53.2431   -3.2757   -8.8843 N   0  0  0  0  0  0  0  0  0  0  0  0
   52.9472   -2.5109   -9.5783 H   0  0  0  0  0  0  0  0  0  0  0  0
   52.3464   -3.6308   -7.8772 C   0  0  0  0  0  0  0  0  0  0  0  0
   52.4659   -4.6650   -6.9884 C   0  0  0  0  0  0  0  0  0  0  0  0
   51.5122   -4.9219   -5.9930 C   0  0  0  0  0  0  0  0  0  0  0  0
   50.4054   -4.1284   -5.8763 C   0  0  0  0  0  0  0  0  0  0  0  0
   49.3058   -4.1298   -5.0088 O   0  0  0  0  0  0  0  0  0  0  0  0
   48.7089   -2.8562   -5.1261 C   0  0  0  0  0  0  0  0  0  0  0  0
   47.3313   -2.9384   -4.9688 F   0  0  0  0  0  0  0  0  0  0  0  0
   49.2597   -1.9971   -4.1733 F   0  0  0  0  0  0  0  0  0  0  0  0
   49.0593   -2.4423   -6.4212 O   0  0  0  0  0  0  0  0  0  0  0  0
   50.2595   -3.0824   -6.7567 C   0  0  0  0  0  0  0  0  0  0  0  0
   51.2039   -2.8476   -7.7233 C   0  0  0  0  0  0  0  0  0  0  0  0
  7  8  1  0  0  0
  8  9  1  0  0  0
  9 10  1  0  0  0
 10 11  1  0  0  0
 11 12  1  0  0  0
 12 13  1  0  0  0
 11  1  1  0  0  0
  1  2  2  0  0  0
  2  3  1  0  0  0
  3 14  1  0  0  0
 14 16  1  0  0  0
 16 17  2  0  0  0
 17 18  1  0  0  0
 18 19  1  0  0  0
 18 20  2  0  0  0
 20 21  1  0  0  0
  3  4  2  0  0  0
  4  5  1  0  0  0
  5 23  1  0  0  0
 23 25  1  0  0  0
 25 26  2  0  0  0
 26 27  1  0  0  0
 27 28  2  0  0  0
 28 29  1  0  0  0
 29 30  1  0  0  0
 30 31  1  0  0  0
 30 32  1  0  0  0
 30 33  1  0  0  0
 33 34  1  0  0  0
 34 35  2  0  0  0
  5  6  2  0  0  0
 13  8  1  0  0  0
  6  1  1  0  0  0
 21 16  1  0  0  0
 35 25  1  0  0  0
 34 28  1  0  0  0
 14 15  1  0  0  0
 21 22  1  0  0  0
 23 24  1  0  0  0
M  END
> <minimizedAffinity>
-10.14034

> <CNNscore>
0.2860058248

> <CNNaffinity>
6.9981436729

> <CNN_VS>
2.0015099049

> <CNNaffinity_variance>
0.0571680665

$$$$
[H]/C(=C(/[H])c1c([H])c([H])c(C(=O)N2C([H])([H])C([H])([H])N([H])C([H])([H])C2([H])[H])c([H])c1-c1c([H])c([H])c([H])c([H])c1[H])c1nc(-c2c([H])c([H])c([H])c([H])c2[H])n([H])n1


 35 39  0  0  0  0  0  0  0  0999 V2000
   61.1617   -6.5049   -8.4104 C   0  0  0  0  0  0  0  0  0  0  0  0
   61.5748   -6.5219   -9.7053 C   0  0  0  0  0  0  0  0  0  0  0  0
   60.7065   -6.1455  -10.6929 C   0  0  0  0  0  0  0  0  0  0  0  0
   59.3830   -5.7338  -10.4335 C   0  0  0  0  0  0  0  0  0  0  0  0
   58.9509   -5.7036   -9.1502 C   0  0  0  0  0  0  0  0  0  0  0  0
   59.8416   -6.0916   -8.1466 C   0  0  0  0  0  0  0  0  0  0  0  0
   62.9753   -6.0230   -7.0125 O   0  0  0  0  0  0  0  0  0  0  0  0
   61.9985   -6.8862   -7.2977 C   0  0  0  0  0  0  0  0  0  0  0  0
   62.0163   -7.9705   -6.4403 N   0  0  0  0  0  0  0  0  0  0  0  0
   63.0561   -8.0309   -5.3715 C   0  0  0  0  0  0  0  0  0  0  0  0
   63.8225   -9.3165   -5.5247 C   0  0  0  0  0  0  0  0  0  0  0  0
   62.9367  -10.4280   -5.6586 N   0  0  0  0  0  0  0  0  0  0  0  0
   61.5740  -10.0680   -5.3733 C   0  0  0  0  0  0  0  0  0  0  0  0
   61.1271   -9.0798   -6.4569 C   0  0  0  0  0  0  0  0  0  0  0  0
   62.9765  -10.8144   -6.6214 H   0  0  0  0  0  0  0  0  0  0  0  0
   57.6532   -5.1550   -8.7024 C   0  0  0  0  0  0  0  0  0  0  0  0
   56.9346   -5.6937   -7.6542 C   0  0  0  0  0  0  0  0  0  0  0  0
   55.7168   -5.1616   -7.3011 C   0  0  0  0  0  0  0  0  0  0  0  0
   55.1687   -4.0883   -7.9636 C   0  0  0  0  0  0  0  0  0  0  0  0
   55.8699   -3.5404   -9.0084 C   0  0  0  0  0  0  0  0  0  0  0  0
   57.0845   -4.0696   -9.3619 C   0  0  0  0  0  0  0  0  0  0  0  0
   58.6179   -5.3666  -11.5913 C   0  0  0  0  0  0  0  0  0  0  0  0
   57.5716   -4.6018  -11.7215 C   0  0  0  0  0  0  0  0  0  0  0  0
   56.9720   -4.3764  -13.0351 C   0  0  0  0  0  0  0  0  0  0  0  0
   57.0481   -5.1907  -14.0947 N   0  0  0  0  0  0  0  0  0  0  0  0
   56.3969   -4.6872  -15.1186 N   0  0  0  0  0  0  0  0  0  0  0  0
   55.8771   -3.5132  -14.7302 C   0  0  0  0  0  0  0  0  0  0  0  0
   56.2378   -3.3364  -13.4521 N   0  0  0  0  0  0  0  0  0  0  0  0
   56.2884   -5.1152  -16.0879 H   0  0  0  0  0  0  0  0  0  0  0  0
   55.0776   -2.6099  -15.5427 C   0  0  0  0  0  0  0  0  0  0  0  0
   54.1417   -1.7787  -14.9430 C   0  0  0  0  0  0  0  0  0  0  0  0
   53.3755   -0.9172  -15.6925 C   0  0  0  0  0  0  0  0  0  0  0  0
   53.5264   -0.8670  -17.0526 C   0  0  0  0  0  0  0  0  0  0  0  0
   54.4548   -1.6909  -17.6524 C   0  0  0  0  0  0  0  0  0  0  0  0
   55.2249   -2.5548  -16.9125 C   0  0  0  0  0  0  0  0  0  0  0  0
  7  8  2  0  0  0
  8  9  1  0  0  0
  9 10  1  0  0  0
 10 11  1  0  0  0
 11 12  1  0  0  0
 12 13  1  0  0  0
 13 14  1  0  0  0
  8  1  1  0  0  0
  1  2  2  0  0  0
  2  3  1  0  0  0
  3  4  2  0  0  0
  4 22  1  0  0  0
 22 23  2  0  0  0
 23 24  1  0  0  0
 24 25  2  0  0  0
 25 26  1  0  0  0
 26 27  1  0  0  0
 27 28  2  0  0  0
 27 30  1  0  0  0
 30 31  2  0  0  0
 31 32  1  0  0  0
 32 33  2  0  0  0
 33 34  1  0  0  0
 34 35  2  0  0  0
  4  5  1  0  0  0
  5  6  2  0  0  0
  5 16  1  0  0  0
 16 17  2  0  0  0
 17 18  1  0  0  0
 18 19  2  0  0  0
 19 20  1  0  0  0
 20 21  2  0  0  0
 14  9  1  0  0  0
  6  1  1  0  0  0
 21 16  1  0  0  0
 28 24  1  0  0  0
 35 30  1  0  0  0
 12 15  1  0  0  0
 26 29  1  0  0  0
M  END
> <minimizedAffinity>
1.19250

> <CNNscore>
0.4769288301

> <CNNaffinity>
6.0239667892

> <CNN_VS>
2.8730034828

> <CNNaffinity_variance>
0.3351002932

$$$$
[H]/C(=C(/[H])c1c([H])c([H])c(C(=O)N2C([H])([H])C([H])([H])N([H])C([H])([H])C2([H])[H])c([H])c1-c1c([H])c([H])c([H])c([H])c1[H])c1nc(-c2c([H])c([H])c([H])c([H])c2[H])n([H])n1


 35 39  0  0  0  0  0  0  0  0999 V2000
   54.2753   -3.8899   -8.4473 C   0  0  0  0  0  0  0  0  0  0  0  0
   55.0600   -4.2398   -7.3939 C   0  0  0  0  0  0  0  0  0  0  0  0
   56.3555   -4.6176   -7.6171 C   0  0  0  0  0  0  0  0  0  0  0  0
   56.9292   -4.6639   -8.9044 C   0  0  0  0  0  0  0  0  0  0  0  0
   56.1679   -4.3143   -9.9687 C   0  0  0  0  0  0  0  0  0  0  0  0
   54.8450   -3.9320   -9.7344 C   0  0  0  0  0  0  0  0  0  0  0  0
   52.5692   -2.3945   -9.0204 O   0  0  0  0  0  0  0  0  0  0  0  0
   52.8970   -3.4808   -8.3181 C   0  0  0  0  0  0  0  0  0  0  0  0
   51.8141   -3.9729   -7.6136 N   0  0  0  0  0  0  0  0  0  0  0  0
   50.5003   -3.2737   -7.7249 C   0  0  0  0  0  0  0  0  0  0  0  0
   50.0465   -2.8897   -6.3427 C   0  0  0  0  0  0  0  0  0  0  0  0
   50.1401   -3.9972   -5.4469 N   0  0  0  0  0  0  0  0  0  0  0  0
   50.4062   -5.2292   -6.1394 C   0  0  0  0  0  0  0  0  0  0  0  0
   51.8027   -5.1103   -6.7607 C   0  0  0  0  0  0  0  0  0  0  0  0
   50.8968   -3.8441   -4.7527 H   0  0  0  0  0  0  0  0  0  0  0  0
   56.6608   -4.1637  -11.3543 C   0  0  0  0  0  0  0  0  0  0  0  0
   57.8548   -3.5424  -11.6606 C   0  0  0  0  0  0  0  0  0  0  0  0
   58.2486   -3.4022  -12.9706 C   0  0  0  0  0  0  0  0  0  0  0  0
   57.4856   -3.8658  -14.0166 C   0  0  0  0  0  0  0  0  0  0  0  0
   56.2954   -4.4860  -13.7299 C   0  0  0  0  0  0  0  0  0  0  0  0
   55.9009   -4.6268  -12.4242 C   0  0  0  0  0  0  0  0  0  0  0  0
   58.3038   -5.0754   -8.9478 C   0  0  0  0  0  0  0  0  0  0  0  0
   58.8813   -6.0774   -9.5472 C   0  0  0  0  0  0  0  0  0  0  0  0
   60.3251   -6.2776   -9.4410 C   0  0  0  0  0  0  0  0  0  0  0  0
   61.1612   -6.5855  -10.4399 N   0  0  0  0  0  0  0  0  0  0  0  0
   62.3944   -6.6936  -10.0004 N   0  0  0  0  0  0  0  0  0  0  0  0
   62.3767   -6.4522   -8.6810 C   0  0  0  0  0  0  0  0  0  0  0  0
   61.1027   -6.1992   -8.3530 N   0  0  0  0  0  0  0  0  0  0  0  0
   63.2638   -6.9286  -10.5691 H   0  0  0  0  0  0  0  0  0  0  0  0
   63.5213   -6.4643   -7.7838 C   0  0  0  0  0  0  0  0  0  0  0  0
   64.2976   -5.3239   -7.6311 C   0  0  0  0  0  0  0  0  0  0  0  0
   65.3840   -5.3137   -6.7881 C   0  0  0  0  0  0  0  0  0  0  0  0
   65.7179   -6.4381   -6.0815 C   0  0  0  0  0  0  0  0  0  0  0  0
   64.9497   -7.5730   -6.2302 C   0  0  0  0  0  0  0  0  0  0  0  0
   63.8627   -7.5933   -7.0697 C   0  0  0  0  0  0  0  0  0  0  0  0
  7  8  2  0  0  0
  8  9  1  0  0  0
  9 10  1  0  0  0
 10 11  1  0  0  0
 11 12  1  0  0  0
 12 13  1  0  0  0
 13 14  1  0  0  0
  8  1  1  0  0  0
  1  2  2  0  0  0
  2  3  1  0  0  0
  3  4  2  0  0  0
  4 22  1  0  0  0
 22 23  2  0  0  0
 23 24  1  0  0  0
 24 25  2  0  0  0
 25 26  1  0  0  0
 26 27  1  0  0  0
 27 28  2  0  0  0
 27 30  1  0  0  0
 30 31  2  0  0  0
 31 32  1  0  0  0
 32 33  2  0  0  0
 33 34  1  0  0  0
 34 35  2  0  0  0
  4  5  1  0  0  0
  5  6  2  0  0  0
  5 16  1  0  0  0
 16 17  2  0  0  0
 17 18  1  0  0  0
 18 19  2  0  0  0
 19 20  1  0  0  0
 20 21  2  0  0  0
 14  9  1  0  0  0
  6  1  1  0  0  0
 21 16  1  0  0  0
 28 24  1  0  0  0
 35 30  1  0  0  0
 12 15  1  0  0  0
 26 29  1  0  0  0
M  END
> <minimizedAffinity>
-10.01466

> <CNNscore>
0.4402914047

> <CNNaffinity>
6.7101011276

> <CNN_VS>
2.9543998241

> <CNNaffinity_variance>
0.0108594839

$$$$
[H]/C(=C(/[H])c1c([H])c([H])c(C(=O)N2C([H])([H])C([H])([H])N([H])C([H])([H])C2([H])[H])c([H])c1-c1c([H])c([H])c([H])c([H])c1[H])c1nc(-c2c([H])c([H])c([H])c([H])c2[H])n([H])n1


 35 39  0  0  0  0  0  0  0  0999 V2000
   57.5956   -3.7395  -13.8488 C   0  0  0  0  0  0  0  0  0  0  0  0
   56.3222   -3.2653  -13.8112 C   0  0  0  0  0  0  0  0  0  0  0  0
   55.5922   -3.3900  -12.6612 C   0  0  0  0  0  0  0  0  0  0  0  0
   56.1001   -3.9950  -11.4931 C   0  0  0  0  0  0  0  0  0  0  0  0
   57.3685   -4.4699  -11.5053 C   0  0  0  0  0  0  0  0  0  0  0  0
   58.1078   -4.3418  -12.6836 C   0  0  0  0  0  0  0  0  0  0  0  0
   57.8313   -3.9099  -16.1706 O   0  0  0  0  0  0  0  0  0  0  0  0
   58.4457   -3.6600  -15.0127 C   0  0  0  0  0  0  0  0  0  0  0  0
   59.7853   -3.3762  -15.2026 N   0  0  0  0  0  0  0  0  0  0  0  0
   60.3365   -3.3812  -16.5894 C   0  0  0  0  0  0  0  0  0  0  0  0
   61.4870   -4.3495  -16.6412 C   0  0  0  0  0  0  0  0  0  0  0  0
   62.3944   -4.1248  -15.5624 N   0  0  0  0  0  0  0  0  0  0  0  0
   62.1076   -2.9012  -14.8633 C   0  0  0  0  0  0  0  0  0  0  0  0
   60.7387   -3.0691  -14.1936 C   0  0  0  0  0  0  0  0  0  0  0  0
   62.3537   -4.9065  -14.8804 H   0  0  0  0  0  0  0  0  0  0  0  0
   58.0940   -4.9884  -10.3263 C   0  0  0  0  0  0  0  0  0  0  0  0
   59.3348   -5.5867  -10.4144 C   0  0  0  0  0  0  0  0  0  0  0  0
   59.9496   -6.0800   -9.2877 C   0  0  0  0  0  0  0  0  0  0  0  0
   59.3676   -6.0017   -8.0441 C   0  0  0  0  0  0  0  0  0  0  0  0
   58.1338   -5.4099   -7.9385 C   0  0  0  0  0  0  0  0  0  0  0  0
   57.5191   -4.9174   -9.0609 C   0  0  0  0  0  0  0  0  0  0  0  0
   55.1955   -4.0305  -10.3790 C   0  0  0  0  0  0  0  0  0  0  0  0
   53.9304   -3.7332  -10.2908 C   0  0  0  0  0  0  0  0  0  0  0  0
   53.2209   -3.8640   -9.0198 C   0  0  0  0  0  0  0  0  0  0  0  0
   52.1816   -3.1272   -8.6092 N   0  0  0  0  0  0  0  0  0  0  0  0
   51.7824   -3.5061   -7.4164 N   0  0  0  0  0  0  0  0  0  0  0  0
   52.5739   -4.5166   -7.0266 C   0  0  0  0  0  0  0  0  0  0  0  0
   53.4499   -4.7243   -8.0187 N   0  0  0  0  0  0  0  0  0  0  0  0
   50.9803   -3.1001   -6.8453 H   0  0  0  0  0  0  0  0  0  0  0  0
   52.4935   -5.2430   -5.7692 C   0  0  0  0  0  0  0  0  0  0  0  0
   51.2678   -5.4110   -5.1400 C   0  0  0  0  0  0  0  0  0  0  0  0
   51.1694   -6.0945   -3.9508 C   0  0  0  0  0  0  0  0  0  0  0  0
   52.2889   -6.6233   -3.3658 C   0  0  0  0  0  0  0  0  0  0  0  0
   53.5083   -6.4588   -3.9872 C   0  0  0  0  0  0  0  0  0  0  0  0
   53.6170   -5.7777   -5.1752 C   0  0  0  0  0  0  0  0  0  0  0  0
  7  8  2  0  0  0
  8  9  1  0  0  0
  9 10  1  0  0  0
 10 11  1  0  0  0
 11 12  1  0  0  0
 12 13  1  0  0  0
 13 14  1  0  0  0
  8  1  1  0  0  0
  1  2  2  0  0  0
  2  3  1  0  0  0
  3  4  2  0  0  0
  4 22  1  0  0  0
 22 23  2  0  0  0
 23 24  1  0  0  0
 24 25  2  0  0  0
 25 26  1  0  0  0
 26 27  1  0  0  0
 27 28  2  0  0  0
 27 30  1  0  0  0
 30 31  2  0  0  0
 31 32  1  0  0  0
 32 33  2  0  0  0
 33 34  1  0  0  0
 34 35  2  0  0  0
  4  5  1  0  0  0
  5  6  2  0  0  0
  5 16  1  0  0  0
 16 17  2  0  0  0
 17 18  1  0  0  0
 18 19  2  0  0  0
 19 20  1  0  0  0
 20 21  2  0  0  0
 14  9  1  0  0  0
  6  1  1  0  0  0
 21 16  1  0  0  0
 28 24  1  0  0  0
 35 30  1  0  0  0
 12 15  1  0  0  0
 26 29  1  0  0  0
M  END
> <minimizedAffinity>
-7.81471

> <CNNscore>
0.4020305872

> <CNNaffinity>
6.5518751144

> <CNN_VS>
2.6340541840

> <CNNaffinity_variance>
0.3416508436

$$$$
[H]/C(=C(/[H])c1c([H])c([H])c(C(=O)N2C([H])([H])C([H])([H])N([H])C([H])([H])C2([H])[H])c([H])c1-c1c([H])c([H])c([H])c([H])c1[H])c1nc(-c2c([H])c([H])c([H])c([H])c2[H])n([H])n1


 35 39  0  0  0  0  0  0  0  0999 V2000
   54.4434   -3.9647   -8.7073 C   0  0  0  0  0  0  0  0  0  0  0  0
   55.2198   -4.5130   -7.7355 C   0  0  0  0  0  0  0  0  0  0  0  0
   56.4654   -4.9799   -8.0540 C   0  0  0  0  0  0  0  0  0  0  0  0
   56.9950   -4.9212   -9.3596 C   0  0  0  0  0  0  0  0  0  0  0  0
   56.2415   -4.3740  -10.3431 C   0  0  0  0  0  0  0  0  0  0  0  0
   54.9694   -3.9014  -10.0119 C   0  0  0  0  0  0  0  0  0  0  0  0
   52.9019   -2.2220   -8.9577 O   0  0  0  0  0  0  0  0  0  0  0  0
   53.1158   -3.4475   -8.4749 C   0  0  0  0  0  0  0  0  0  0  0  0
   51.9890   -3.9481   -7.8499 N   0  0  0  0  0  0  0  0  0  0  0  0
   50.7554   -3.1095   -7.8018 C   0  0  0  0  0  0  0  0  0  0  0  0
   50.3475   -2.9442   -6.3631 C   0  0  0  0  0  0  0  0  0  0  0  0
   50.3268   -4.2024   -5.6889 N   0  0  0  0  0  0  0  0  0  0  0  0
   50.4607   -5.3051   -6.6022 C   0  0  0  0  0  0  0  0  0  0  0  0
   51.8605   -5.2168   -7.2212 C   0  0  0  0  0  0  0  0  0  0  0  0
   51.0969   -4.2591   -4.9950 H   0  0  0  0  0  0  0  0  0  0  0  0
   56.7072   -4.1011  -11.7194 C   0  0  0  0  0  0  0  0  0  0  0  0
   55.8654   -4.1255  -12.8130 C   0  0  0  0  0  0  0  0  0  0  0  0
   56.3598   -3.8951  -14.0753 C   0  0  0  0  0  0  0  0  0  0  0  0
   57.6910   -3.6346  -14.3023 C   0  0  0  0  0  0  0  0  0  0  0  0
   58.5420   -3.6067  -13.2260 C   0  0  0  0  0  0  0  0  0  0  0  0
   58.0509   -3.8362  -11.9665 C   0  0  0  0  0  0  0  0  0  0  0  0
   58.3211   -5.4508   -9.5069 C   0  0  0  0  0  0  0  0  0  0  0  0
   59.2688   -5.6467   -8.6351 C   0  0  0  0  0  0  0  0  0  0  0  0
   60.5506   -6.2178   -9.0433 C   0  0  0  0  0  0  0  0  0  0  0  0
   61.6691   -6.2679   -8.3096 N   0  0  0  0  0  0  0  0  0  0  0  0
   62.6404   -6.8479   -8.9775 N   0  0  0  0  0  0  0  0  0  0  0  0
   62.1562   -7.1903  -10.1808 C   0  0  0  0  0  0  0  0  0  0  0  0
   60.8755   -6.7980  -10.2063 N   0  0  0  0  0  0  0  0  0  0  0  0
   63.6366   -7.0244   -8.6446 H   0  0  0  0  0  0  0  0  0  0  0  0
   62.8842   -7.8578  -11.2482 C   0  0  0  0  0  0  0  0  0  0  0  0
   63.2714   -9.1828  -11.1034 C   0  0  0  0  0  0  0  0  0  0  0  0
   63.9604   -9.8329  -12.1003 C   0  0  0  0  0  0  0  0  0  0  0  0
   64.2767   -9.1764  -13.2596 C   0  0  0  0  0  0  0  0  0  0  0  0
   63.8941   -7.8604  -13.4077 C   0  0  0  0  0  0  0  0  0  0  0  0
   63.2057   -7.2023  -12.4179 C   0  0  0  0  0  0  0  0  0  0  0  0
  7  8  2  0  0  0
  8  9  1  0  0  0
  9 10  1  0  0  0
 10 11  1  0  0  0
 11 12  1  0  0  0
 12 13  1  0  0  0
 13 14  1  0  0  0
  8  1  1  0  0  0
  1  2  2  0  0  0
  2  3  1  0  0  0
  3  4  2  0  0  0
  4 22  1  0  0  0
 22 23  2  0  0  0
 23 24  1  0  0  0
 24 25  2  0  0  0
 25 26  1  0  0  0
 26 27  1  0  0  0
 27 28  2  0  0  0
 27 30  1  0  0  0
 30 31  2  0  0  0
 31 32  1  0  0  0
 32 33  2  0  0  0
 33 34  1  0  0  0
 34 35  2  0  0  0
  4  5  1  0  0  0
  5  6  2  0  0  0
  5 16  1  0  0  0
 16 17  2  0  0  0
 17 18  1  0  0  0
 18 19  2  0  0  0
 19 20  1  0  0  0
 20 21  2  0  0  0
 14  9  1  0  0  0
  6  1  1  0  0  0
 21 16  1  0  0  0
 28 24  1  0  0  0
 35 30  1  0  0  0
 12 15  1  0  0  0
 26 29  1  0  0  0
M  END
> <minimizedAffinity>
-9.96505

> <CNNscore>
0.3783185482

> <CNNaffinity>
6.6334943771

> <CNN_VS>
2.5095739365

> <CNNaffinity_variance>
0.0497095287

$$$$
[H]/C(=C(/[H])c1c([H])c([H])c(C(=O)N2C([H])([H])C([H])([H])N([H])C([H])([H])C2([H])[H])c([H])c1-c1c([H])c([H])c([H])c([H])c1[H])c1nc(-c2c([H])c([H])c([H])c([H])c2[H])n([H])n1


 35 39  0  0  0  0  0  0  0  0999 V2000
   54.3867   -6.8492   -4.0351 C   0  0  0  0  0  0  0  0  0  0  0  0
   55.5690   -7.0036   -4.6878 C   0  0  0  0  0  0  0  0  0  0  0  0
   55.7231   -6.4654   -5.9358 C   0  0  0  0  0  0  0  0  0  0  0  0
   54.7024   -5.7466   -6.5916 C   0  0  0  0  0  0  0  0  0  0  0  0
   53.5175   -5.5754   -5.9582 C   0  0  0  0  0  0  0  0  0  0  0  0
   53.3656   -6.1296   -4.6851 C   0  0  0  0  0  0  0  0  0  0  0  0
   55.1954   -7.8601   -2.0858 O   0  0  0  0  0  0  0  0  0  0  0  0
   54.1230   -7.3809   -2.7192 C   0  0  0  0  0  0  0  0  0  0  0  0
   52.9823   -7.5085   -1.9488 N   0  0  0  0  0  0  0  0  0  0  0  0
   53.0898   -8.1225   -0.5929 C   0  0  0  0  0  0  0  0  0  0  0  0
   52.1483   -9.2942   -0.5244 C   0  0  0  0  0  0  0  0  0  0  0  0
   50.8490   -8.9351   -0.9941 N   0  0  0  0  0  0  0  0  0  0  0  0
   50.7157   -7.5149   -1.1767 C   0  0  0  0  0  0  0  0  0  0  0  0
   51.6661   -7.1098   -2.3094 C   0  0  0  0  0  0  0  0  0  0  0  0
   50.6452   -9.4002   -1.8997 H   0  0  0  0  0  0  0  0  0  0  0  0
   52.4100   -4.7237   -6.4416 C   0  0  0  0  0  0  0  0  0  0  0  0
   52.5351   -3.8757   -7.5234 C   0  0  0  0  0  0  0  0  0  0  0  0
   51.4805   -3.0822   -7.9096 C   0  0  0  0  0  0  0  0  0  0  0  0
   50.2748   -3.0966   -7.2482 C   0  0  0  0  0  0  0  0  0  0  0  0
   50.1332   -3.9340   -6.1702 C   0  0  0  0  0  0  0  0  0  0  0  0
   51.1837   -4.7260   -5.7836 C   0  0  0  0  0  0  0  0  0  0  0  0
   55.0445   -5.2469   -7.8931 C   0  0  0  0  0  0  0  0  0  0  0  0
   56.1928   -4.9140   -8.4101 C   0  0  0  0  0  0  0  0  0  0  0  0
   56.2784   -4.4314   -9.7869 C   0  0  0  0  0  0  0  0  0  0  0  0
   55.2822   -3.9031  -10.5082 N   0  0  0  0  0  0  0  0  0  0  0  0
   55.6993   -3.5729  -11.7094 N   0  0  0  0  0  0  0  0  0  0  0  0
   57.0006   -3.8889  -11.7873 C   0  0  0  0  0  0  0  0  0  0  0  0
   57.3410   -4.4136  -10.6025 N   0  0  0  0  0  0  0  0  0  0  0  0
   55.1270   -3.1337  -12.4930 H   0  0  0  0  0  0  0  0  0  0  0  0
   57.8701   -3.6974  -12.9373 C   0  0  0  0  0  0  0  0  0  0  0  0
   59.2475   -3.6623  -12.7700 C   0  0  0  0  0  0  0  0  0  0  0  0
   60.0875   -3.4824  -13.8438 C   0  0  0  0  0  0  0  0  0  0  0  0
   59.5724   -3.3341  -15.1038 C   0  0  0  0  0  0  0  0  0  0  0  0
   58.2049   -3.3683  -15.2746 C   0  0  0  0  0  0  0  0  0  0  0  0
   57.3575   -3.5475  -14.2085 C   0  0  0  0  0  0  0  0  0  0  0  0
  7  8  2  0  0  0
  8  9  1  0  0  0
  9 10  1  0  0  0
 10 11  1  0  0  0
 11 12  1  0  0  0
 12 13  1  0  0  0
 13 14  1  0  0  0
  8  1  1  0  0  0
  1  2  2  0  0  0
  2  3  1  0  0  0
  3  4  2  0  0  0
  4 22  1  0  0  0
 22 23  2  0  0  0
 23 24  1  0  0  0
 24 25  2  0  0  0
 25 26  1  0  0  0
 26 27  1  0  0  0
 27 28  2  0  0  0
 27 30  1  0  0  0
 30 31  2  0  0  0
 31 32  1  0  0  0
 32 33  2  0  0  0
 33 34  1  0  0  0
 34 35  2  0  0  0
  4  5  1  0  0  0
  5  6  2  0  0  0
  5 16  1  0  0  0
 16 17  2  0  0  0
 17 18  1  0  0  0
 18 19  2  0  0  0
 19 20  1  0  0  0
 20 21  2  0  0  0
 14  9  1  0  0  0
  6  1  1  0  0  0
 21 16  1  0  0  0
 28 24  1  0  0  0
 35 30  1  0  0  0
 12 15  1  0  0  0
 26 29  1  0  0  0
M  END
> <minimizedAffinity>
-10.81666

> <CNNscore>
0.3657531142

> <CNNaffinity>
6.8900628090

> <CNN_VS>
2.5200619698

> <CNNaffinity_variance>
0.0536429957

$$$$
[H]/C(=C(/[H])c1c([H])c([H])c(C(=O)N2C([H])([H])C([H])([H])N([H])C([H])([H])C2([H])[H])c([H])c1-c1c([H])c([H])c([H])c([H])c1[H])c1nc(-c2c([H])c([H])c([H])c([H])c2[H])n([H])n1


 35 39  0  0  0  0  0  0  0  0999 V2000
   54.4045   -3.9427   -8.7248 C   0  0  0  0  0  0  0  0  0  0  0  0
   55.1519   -4.5217   -7.7481 C   0  0  0  0  0  0  0  0  0  0  0  0
   56.3895   -5.0176   -8.0538 C   0  0  0  0  0  0  0  0  0  0  0  0
   56.9397   -4.9586   -9.3508 C   0  0  0  0  0  0  0  0  0  0  0  0
   56.2153   -4.3811  -10.3389 C   0  0  0  0  0  0  0  0  0  0  0  0
   54.9512   -3.8790  -10.0208 C   0  0  0  0  0  0  0  0  0  0  0  0
   52.9000   -2.1740   -9.0140 O   0  0  0  0  0  0  0  0  0  0  0  0
   53.0876   -3.3935   -8.5058 C   0  0  0  0  0  0  0  0  0  0  0  0
   51.9494   -3.8577   -7.8731 N   0  0  0  0  0  0  0  0  0  0  0  0
   50.7335   -2.9929   -7.8448 C   0  0  0  0  0  0  0  0  0  0  0  0
   50.3267   -2.7899   -6.4106 C   0  0  0  0  0  0  0  0  0  0  0  0
   50.2786   -4.0333   -5.7110 N   0  0  0  0  0  0  0  0  0  0  0  0
   50.3912   -5.1570   -6.6013 C   0  0  0  0  0  0  0  0  0  0  0  0
   51.7936   -5.1104   -7.2190 C   0  0  0  0  0  0  0  0  0  0  0  0
   51.0463   -4.0917   -5.0144 H   0  0  0  0  0  0  0  0  0  0  0  0
   56.7082   -4.1055  -11.7051 C   0  0  0  0  0  0  0  0  0  0  0  0
   55.8866   -4.1191  -12.8142 C   0  0  0  0  0  0  0  0  0  0  0  0
   56.4059   -3.8867  -14.0661 C   0  0  0  0  0  0  0  0  0  0  0  0
   57.7428   -3.6348  -14.2674 C   0  0  0  0  0  0  0  0  0  0  0  0
   58.5740   -3.6177  -13.1754 C   0  0  0  0  0  0  0  0  0  0  0  0
   58.0581   -3.8492  -11.9262 C   0  0  0  0  0  0  0  0  0  0  0  0
   58.2536   -5.5211   -9.4849 C   0  0  0  0  0  0  0  0  0  0  0  0
   59.2540   -5.5730   -8.6523 C   0  0  0  0  0  0  0  0  0  0  0  0
   60.5073   -6.2214   -9.0328 C   0  0  0  0  0  0  0  0  0  0  0  0
   61.0219   -6.2962  -10.2662 N   0  0  0  0  0  0  0  0  0  0  0  0
   62.1618   -6.9491  -10.2580 N   0  0  0  0  0  0  0  0  0  0  0  0
   62.4094   -7.3158   -8.9917 C   0  0  0  0  0  0  0  0  0  0  0  0
   61.3874   -6.8631   -8.2530 N   0  0  0  0  0  0  0  0  0  0  0  0
   62.7905   -7.1601  -11.0915 H   0  0  0  0  0  0  0  0  0  0  0  0
   63.5647   -8.0607   -8.5168 C   0  0  0  0  0  0  0  0  0  0  0  0
   63.7103   -8.3301   -7.1630 C   0  0  0  0  0  0  0  0  0  0  0  0
   64.7949   -9.0328   -6.6929 C   0  0  0  0  0  0  0  0  0  0  0  0
   65.7545   -9.4803   -7.5612 C   0  0  0  0  0  0  0  0  0  0  0  0
   65.6139   -9.2150   -8.9066 C   0  0  0  0  0  0  0  0  0  0  0  0
   64.5343   -8.5140   -9.3861 C   0  0  0  0  0  0  0  0  0  0  0  0
  7  8  2  0  0  0
  8  9  1  0  0  0
  9 10  1  0  0  0
 10 11  1  0  0  0
 11 12  1  0  0  0
 12 13  1  0  0  0
 13 14  1  0  0  0
  8  1  1  0  0  0
  1  2  2  0  0  0
  2  3  1  0  0  0
  3  4  2  0  0  0
  4 22  1  0  0  0
 22 23  2  0  0  0
 23 24  1  0  0  0
 24 25  2  0  0  0
 25 26  1  0  0  0
 26 27  1  0  0  0
 27 28  2  0  0  0
 27 30  1  0  0  0
 30 31  2  0  0  0
 31 32  1  0  0  0
 32 33  2  0  0  0
 33 34  1  0  0  0
 34 35  2  0  0  0
  4  5  1  0  0  0
  5  6  2  0  0  0
  5 16  1  0  0  0
 16 17  2  0  0  0
 17 18  1  0  0  0
 18 19  2  0  0  0
 19 20  1  0  0  0
 20 21  2  0  0  0
 14  9  1  0  0  0
  6  1  1  0  0  0
 21 16  1  0  0  0
 28 24  1  0  0  0
 35 30  1  0  0  0
 12 15  1  0  0  0
 26 29  1  0  0  0
M  END
> <minimizedAffinity>
-9.52663

> <CNNscore>
0.3262608349

> <CNNaffinity>
6.5259995461

> <CNN_VS>
2.1291780472

> <CNNaffinity_variance>
0.0144453403

$$$$
[H]/C(=C(/[H])c1c([H])c([H])c(C(=O)N2C([H])([H])C([H])([H])N([H])C([H])([H])C2([H])[H])c([H])c1-c1c([H])c([H])c([H])c([H])c1[H])c1nc(-c2c([H])c([H])c([H])c([H])c2[H])n([H])n1


 35 39  0  0  0  0  0  0  0  0999 V2000
   53.8197   -3.9140   -8.3002 C   0  0  0  0  0  0  0  0  0  0  0  0
   54.5596   -3.9637   -9.4395 C   0  0  0  0  0  0  0  0  0  0  0  0
   55.8395   -4.4436   -9.3893 C   0  0  0  0  0  0  0  0  0  0  0  0
   56.4416   -4.8970   -8.1975 C   0  0  0  0  0  0  0  0  0  0  0  0
   55.7215   -4.8621   -7.0509 C   0  0  0  0  0  0  0  0  0  0  0  0
   54.4161   -4.3685   -7.1084 C   0  0  0  0  0  0  0  0  0  0  0  0
   52.1826   -2.4632   -9.1312 O   0  0  0  0  0  0  0  0  0  0  0  0
   52.4636   -3.4223   -8.2470 C   0  0  0  0  0  0  0  0  0  0  0  0
   51.3638   -3.7287   -7.4674 N   0  0  0  0  0  0  0  0  0  0  0  0
   50.0841   -2.9976   -7.7023 C   0  0  0  0  0  0  0  0  0  0  0  0
   49.6597   -2.3532   -6.4107 C   0  0  0  0  0  0  0  0  0  0  0  0
   49.7072   -3.2875   -5.3324 N   0  0  0  0  0  0  0  0  0  0  0  0
   49.9088   -4.6341   -5.7950 C   0  0  0  0  0  0  0  0  0  0  0  0
   51.3047   -4.6950   -6.4262 C   0  0  0  0  0  0  0  0  0  0  0  0
   50.4756   -3.0504   -4.6757 H   0  0  0  0  0  0  0  0  0  0  0  0
   56.1509   -5.4384   -5.7590 C   0  0  0  0  0  0  0  0  0  0  0  0
   55.7736   -4.9095   -4.5412 C   0  0  0  0  0  0  0  0  0  0  0  0
   56.2294   -5.4681   -3.3702 C   0  0  0  0  0  0  0  0  0  0  0  0
   57.0665   -6.5592   -3.3585 C   0  0  0  0  0  0  0  0  0  0  0  0
   57.4517   -7.0976   -4.5607 C   0  0  0  0  0  0  0  0  0  0  0  0
   56.9982   -6.5420   -5.7294 C   0  0  0  0  0  0  0  0  0  0  0  0
   57.7885   -5.3743   -8.3351 C   0  0  0  0  0  0  0  0  0  0  0  0
   58.5517   -5.5000   -9.3831 C   0  0  0  0  0  0  0  0  0  0  0  0
   59.9142   -6.0132   -9.2556 C   0  0  0  0  0  0  0  0  0  0  0  0
   60.5535   -6.7988  -10.1306 N   0  0  0  0  0  0  0  0  0  0  0  0
   61.7665   -7.0767   -9.7094 N   0  0  0  0  0  0  0  0  0  0  0  0
   61.9360   -6.4622   -8.5292 C   0  0  0  0  0  0  0  0  0  0  0  0
   60.7933   -5.8150   -8.2644 N   0  0  0  0  0  0  0  0  0  0  0  0
   62.4976   -7.6771  -10.1988 H   0  0  0  0  0  0  0  0  0  0  0  0
   63.1307   -6.4950   -7.7005 C   0  0  0  0  0  0  0  0  0  0  0  0
   64.0402   -5.4476   -7.7491 C   0  0  0  0  0  0  0  0  0  0  0  0
   65.1760   -5.4586   -6.9740 C   0  0  0  0  0  0  0  0  0  0  0  0
   65.4278   -6.5121   -6.1362 C   0  0  0  0  0  0  0  0  0  0  0  0
   64.5273   -7.5546   -6.0848 C   0  0  0  0  0  0  0  0  0  0  0  0
   63.3899   -7.5530   -6.8550 C   0  0  0  0  0  0  0  0  0  0  0  0
  7  8  2  0  0  0
  8  9  1  0  0  0
  9 10  1  0  0  0
 10 11  1  0  0  0
 11 12  1  0  0  0
 12 13  1  0  0  0
 13 14  1  0  0  0
  8  1  1  0  0  0
  1  2  2  0  0  0
  2  3  1  0  0  0
  3  4  2  0  0  0
  4 22  1  0  0  0
 22 23  2  0  0  0
 23 24  1  0  0  0
 24 25  2  0  0  0
 25 26  1  0  0  0
 26 27  1  0  0  0
 27 28  2  0  0  0
 27 30  1  0  0  0
 30 31  2  0  0  0
 31 32  1  0  0  0
 32 33  2  0  0  0
 33 34  1  0  0  0
 34 35  2  0  0  0
  4  5  1  0  0  0
  5  6  2  0  0  0
  5 16  1  0  0  0
 16 17  2  0  0  0
 17 18  1  0  0  0
 18 19  2  0  0  0
 19 20  1  0  0  0
 20 21  2  0  0  0
 14  9  1  0  0  0
  6  1  1  0  0  0
 21 16  1  0  0  0
 28 24  1  0  0  0
 35 30  1  0  0  0
 12 15  1  0  0  0
 26 29  1  0  0  0
M  END
> <minimizedAffinity>
-9.23479

> <CNNscore>
0.3037742972

> <CNNaffinity>
6.7848625183

> <CNN_VS>
2.0610668659

> <CNNaffinity_variance>
0.0535771549

$$$$
[H]/C(=C(/[H])c1c([H])c([H])c(C(=O)N2C([H])([H])C([H])([H])N([H])C([H])([H])C2([H])[H])c([H])c1-c1c([H])c([H])c([H])c([H])c1[H])c1nc(-c2c([H])c([H])c([H])c([H])c2[H])n([H])n1


 35 39  0  0  0  0  0  0  0  0999 V2000
   57.6383   -3.6582  -13.8528 C   0  0  0  0  0  0  0  0  0  0  0  0
   56.3266   -3.3089  -13.7794 C   0  0  0  0  0  0  0  0  0  0  0  0
   55.6221   -3.5787  -12.6385 C   0  0  0  0  0  0  0  0  0  0  0  0
   56.1949   -4.2107  -11.5156 C   0  0  0  0  0  0  0  0  0  0  0  0
   57.5018   -4.5629  -11.5638 C   0  0  0  0  0  0  0  0  0  0  0  0
   58.2151   -4.2870  -12.7327 C   0  0  0  0  0  0  0  0  0  0  0  0
   57.8170   -3.4482  -16.1765 O   0  0  0  0  0  0  0  0  0  0  0  0
   58.4665   -3.4211  -15.0111 C   0  0  0  0  0  0  0  0  0  0  0  0
   59.8135   -3.1660  -15.1892 N   0  0  0  0  0  0  0  0  0  0  0  0
   60.3346   -2.9626  -16.5728 C   0  0  0  0  0  0  0  0  0  0  0  0
   61.4379   -3.9560  -16.8171 C   0  0  0  0  0  0  0  0  0  0  0  0
   62.3772   -3.9528  -15.7422 N   0  0  0  0  0  0  0  0  0  0  0  0
   62.1618   -2.8522  -14.8419 C   0  0  0  0  0  0  0  0  0  0  0  0
   60.8010   -3.0720  -14.1708 C   0  0  0  0  0  0  0  0  0  0  0  0
   62.3149   -4.8350  -15.1985 H   0  0  0  0  0  0  0  0  0  0  0  0
   58.2834   -5.0895  -10.4248 C   0  0  0  0  0  0  0  0  0  0  0  0
   57.8249   -5.0559   -9.1233 C   0  0  0  0  0  0  0  0  0  0  0  0
   58.6087   -5.5316   -8.0984 C   0  0  0  0  0  0  0  0  0  0  0  0
   59.8621   -6.0530   -8.3185 C   0  0  0  0  0  0  0  0  0  0  0  0
   60.3335   -6.0939   -9.6068 C   0  0  0  0  0  0  0  0  0  0  0  0
   59.5534   -5.6201  -10.6302 C   0  0  0  0  0  0  0  0  0  0  0  0
   55.3079   -4.4058  -10.4039 C   0  0  0  0  0  0  0  0  0  0  0  0
   54.3794   -3.6422   -9.9024 C   0  0  0  0  0  0  0  0  0  0  0  0
   53.5946   -4.0816   -8.7506 C   0  0  0  0  0  0  0  0  0  0  0  0
   53.8051   -5.1815   -8.0174 N   0  0  0  0  0  0  0  0  0  0  0  0
   52.9158   -5.2789   -7.0553 N   0  0  0  0  0  0  0  0  0  0  0  0
   52.0971   -4.2207   -7.1520 C   0  0  0  0  0  0  0  0  0  0  0  0
   52.5253   -3.4966   -8.1947 N   0  0  0  0  0  0  0  0  0  0  0  0
   52.8399   -6.0479   -6.3223 H   0  0  0  0  0  0  0  0  0  0  0  0
   50.9649   -3.9212   -6.2897 C   0  0  0  0  0  0  0  0  0  0  0  0
   50.7139   -4.7065   -5.1731 C   0  0  0  0  0  0  0  0  0  0  0  0
   49.6489   -4.4408   -4.3446 C   0  0  0  0  0  0  0  0  0  0  0  0
   48.8141   -3.3888   -4.6121 C   0  0  0  0  0  0  0  0  0  0  0  0
   49.0596   -2.6063   -5.7201 C   0  0  0  0  0  0  0  0  0  0  0  0
   50.1206   -2.8635   -6.5537 C   0  0  0  0  0  0  0  0  0  0  0  0
  7  8  2  0  0  0
  8  9  1  0  0  0
  9 10  1  0  0  0
 10 11  1  0  0  0
 11 12  1  0  0  0
 12 13  1  0  0  0
 13 14  1  0  0  0
  8  1  1  0  0  0
  1  2  2  0  0  0
  2  3  1  0  0  0
  3  4  2  0  0  0
  4 22  1  0  0  0
 22 23  2  0  0  0
 23 24  1  0  0  0
 24 25  2  0  0  0
 25 26  1  0  0  0
 26 27  1  0  0  0
 27 28  2  0  0  0
 27 30  1  0  0  0
 30 31  2  0  0  0
 31 32  1  0  0  0
 32 33  2  0  0  0
 33 34  1  0  0  0
 34 35  2  0  0  0
  4  5  1  0  0  0
  5  6  2  0  0  0
  5 16  1  0  0  0
 16 17  2  0  0  0
 17 18  1  0  0  0
 18 19  2  0  0  0
 19 20  1  0  0  0
 20 21  2  0  0  0
 14  9  1  0  0  0
  6  1  1  0  0  0
 21 16  1  0  0  0
 28 24  1  0  0  0
 35 30  1  0  0  0
 12 15  1  0  0  0
 26 29  1  0  0  0
M  END
> <minimizedAffinity>
-9.49610

> <CNNscore>
0.2734059393

> <CNNaffinity>
6.3614735603

> <CNN_VS>
1.7392646074

> <CNNaffinity_variance>
0.1274716556

$$$$
[H]/C(=C(/[H])c1c([H])c([H])c(C(=O)N2C([H])([H])C([H])([H])N([H])C([H])([H])C2([H])[H])c([H])c1-c1c([H])c([H])c([H])c([H])c1[H])c1nc(-c2c([H])c([H])c([H])c([H])c2[H])n([H])n1


 35 39  0  0  0  0  0  0  0  0999 V2000
   61.3016   -7.0131   -7.8860 C   0  0  0  0  0  0  0  0  0  0  0  0
   60.2236   -6.2979   -8.3033 C   0  0  0  0  0  0  0  0  0  0  0  0
   59.1347   -6.1833   -7.4835 C   0  0  0  0  0  0  0  0  0  0  0  0
   59.0709   -6.7783   -6.2066 C   0  0  0  0  0  0  0  0  0  0  0  0
   60.1356   -7.4911   -5.7673 C   0  0  0  0  0  0  0  0  0  0  0  0
   61.2434   -7.6065   -6.6103 C   0  0  0  0  0  0  0  0  0  0  0  0
   62.9740   -6.0813   -9.2315 O   0  0  0  0  0  0  0  0  0  0  0  0
   62.4957   -7.1964   -8.6762 C   0  0  0  0  0  0  0  0  0  0  0  0
   63.2741   -8.2935   -8.9948 N   0  0  0  0  0  0  0  0  0  0  0  0
   64.4749   -8.1020   -9.8600 C   0  0  0  0  0  0  0  0  0  0  0  0
   64.3498   -9.0068  -11.0556 C   0  0  0  0  0  0  0  0  0  0  0  0
   64.0177  -10.3371  -10.6586 N   0  0  0  0  0  0  0  0  0  0  0  0
   64.1271  -10.5179   -9.2361 C   0  0  0  0  0  0  0  0  0  0  0  0
   63.0574   -9.6364   -8.5810 C   0  0  0  0  0  0  0  0  0  0  0  0
   63.0474  -10.5730  -10.9429 H   0  0  0  0  0  0  0  0  0  0  0  0
   60.2855   -8.0432   -4.4042 C   0  0  0  0  0  0  0  0  0  0  0  0
   60.6952   -9.3390   -4.1624 C   0  0  0  0  0  0  0  0  0  0  0  0
   60.7864   -9.8095   -2.8735 C   0  0  0  0  0  0  0  0  0  0  0  0
   60.4795   -9.0255   -1.7861 C   0  0  0  0  0  0  0  0  0  0  0  0
   60.0704   -7.7345   -2.0086 C   0  0  0  0  0  0  0  0  0  0  0  0
   59.9788   -7.2635   -3.2931 C   0  0  0  0  0  0  0  0  0  0  0  0
   57.8535   -6.5453   -5.4826 C   0  0  0  0  0  0  0  0  0  0  0  0
   56.9436   -7.3689   -5.0459 C   0  0  0  0  0  0  0  0  0  0  0  0
   55.7792   -6.8734   -4.3148 C   0  0  0  0  0  0  0  0  0  0  0  0
   55.7111   -6.6250   -3.0012 N   0  0  0  0  0  0  0  0  0  0  0  0
   54.5169   -6.1893   -2.6695 N   0  0  0  0  0  0  0  0  0  0  0  0
   53.7762   -6.1476   -3.7871 C   0  0  0  0  0  0  0  0  0  0  0  0
   54.5627   -6.5695   -4.7862 N   0  0  0  0  0  0  0  0  0  0  0  0
   54.1774   -5.9139   -1.6982 H   0  0  0  0  0  0  0  0  0  0  0  0
   52.3882   -5.7258   -3.8897 C   0  0  0  0  0  0  0  0  0  0  0  0
   51.8388   -5.4371   -5.1312 C   0  0  0  0  0  0  0  0  0  0  0  0
   50.5286   -5.0367   -5.2507 C   0  0  0  0  0  0  0  0  0  0  0  0
   49.7411   -4.9161   -4.1370 C   0  0  0  0  0  0  0  0  0  0  0  0
   50.2826   -5.2018   -2.9020 C   0  0  0  0  0  0  0  0  0  0  0  0
   51.5901   -5.6025   -2.7721 C   0  0  0  0  0  0  0  0  0  0  0  0
  7  8  2  0  0  0
  8  9  1  0  0  0
  9 10  1  0  0  0
 10 11  1  0  0  0
 11 12  1  0  0  0
 12 13  1  0  0  0
 13 14  1  0  0  0
  8  1  1  0  0  0
  1  2  2  0  0  0
  2  3  1  0  0  0
  3  4  2  0  0  0
  4 22  1  0  0  0
 22 23  2  0  0  0
 23 24  1  0  0  0
 24 25  2  0  0  0
 25 26  1  0  0  0
 26 27  1  0  0  0
 27 28  2  0  0  0
 27 30  1  0  0  0
 30 31  2  0  0  0
 31 32  1  0  0  0
 32 33  2  0  0  0
 33 34  1  0  0  0
 34 35  2  0  0  0
  4  5  1  0  0  0
  5  6  2  0  0  0
  5 16  1  0  0  0
 16 17  2  0  0  0
 17 18  1  0  0  0
 18 19  2  0  0  0
 19 20  1  0  0  0
 20 21  2  0  0  0
 14  9  1  0  0  0
  6  1  1  0  0  0
 21 16  1  0  0  0
 28 24  1  0  0  0
 35 30  1  0  0  0
 12 15  1  0  0  0
 26 29  1  0  0  0
M  END
> <minimizedAffinity>
1.01453

> <CNNscore>
0.2508710623

> <CNNaffinity>
5.6932077408

> <CNN_VS>
1.4282610416

> <CNNaffinity_variance>
0.7380177379

$$$$
[H]OC1([H])c2c([H])c(N([H])c3nc4c([H])c([H])c5c(c4n3C([H])([H])[H])C3(C(=O)N(C(=O)OC([H])([H])C([H])([H])[H])C5=O)C([H])([H])C3([H])[H])c([H])c([H])c2C([H])([H])C1([H])[H]


 36 41  0  0  0  0  0  0  0  0999 V2000
   49.3117   -4.9596   -3.2853 C   0  0  0  0  0  0  0  0  0  0  0  0
   49.7594   -5.9440   -2.6615 O   0  0  0  0  0  0  0  0  0  0  0  0
   49.9512   -4.6338   -4.5422 N   0  0  0  0  0  0  0  0  0  0  0  0
   51.0785   -5.3888   -5.0042 C   0  0  0  0  0  0  0  0  0  0  0  0
   51.8445   -5.9390   -4.1940 O   0  0  0  0  0  0  0  0  0  0  0  0
   51.2548   -5.4599   -6.5026 C   0  0  0  0  0  0  0  0  0  0  0  0
   49.8590   -6.0013   -7.0520 C   0  0  0  0  0  0  0  0  0  0  0  0
   51.1115   -6.6804   -7.2328 C   0  0  0  0  0  0  0  0  0  0  0  0
   51.3457   -4.0523   -6.9780 C   0  0  0  0  0  0  0  0  0  0  0  0
   50.2803   -3.2704   -6.5697 C   0  0  0  0  0  0  0  0  0  0  0  0
   50.0966   -2.0167   -7.1903 C   0  0  0  0  0  0  0  0  0  0  0  0
   50.9810   -1.6245   -8.1573 C   0  0  0  0  0  0  0  0  0  0  0  0
   52.0387   -2.4260   -8.5272 C   0  0  0  0  0  0  0  0  0  0  0  0
   53.0592   -2.2764   -9.3913 N   0  0  0  0  0  0  0  0  0  0  0  0
   53.8766   -3.3187   -9.3762 C   0  0  0  0  0  0  0  0  0  0  0  0
   53.3734   -4.2120   -8.4513 N   0  0  0  0  0  0  0  0  0  0  0  0
   53.9914   -5.4354   -8.0444 C   0  0  0  0  0  0  0  0  0  0  0  0
   52.2578   -3.6760   -7.9423 C   0  0  0  0  0  0  0  0  0  0  0  0
   49.5227   -3.5349   -5.3322 C   0  0  0  0  0  0  0  0  0  0  0  0
   48.5597   -2.8354   -4.9952 O   0  0  0  0  0  0  0  0  0  0  0  0
   55.0577   -3.5985  -10.1097 N   0  0  0  0  0  0  0  0  0  0  0  0
   55.1190   -3.3247  -11.1480 H   0  0  0  0  0  0  0  0  0  0  0  0
   56.2272   -4.2149   -9.6167 C   0  0  0  0  0  0  0  0  0  0  0  0
   56.4011   -4.3841   -8.2345 C   0  0  0  0  0  0  0  0  0  0  0  0
   57.5275   -4.9946   -7.7307 C   0  0  0  0  0  0  0  0  0  0  0  0
   58.5296   -5.4646   -8.5512 C   0  0  0  0  0  0  0  0  0  0  0  0
   59.8232   -6.1439   -8.2937 C   0  0  0  0  0  0  0  0  0  0  0  0
   60.6372   -5.8529   -9.5460 C   0  0  0  0  0  0  0  0  0  0  0  0
   59.5747   -5.8892  -10.6134 C   0  0  0  0  0  0  0  0  0  0  0  0
   59.9256   -5.0779  -11.7112 O   0  0  0  0  0  0  0  0  0  0  0  0
   58.3903   -5.3157   -9.8962 C   0  0  0  0  0  0  0  0  0  0  0  0
   57.2338   -4.6902  -10.3952 C   0  0  0  0  0  0  0  0  0  0  0  0
   59.3902   -4.2587  -11.6397 H   0  0  0  0  0  0  0  0  0  0  0  0
   48.2616   -4.2494   -2.7654 O   0  0  0  0  0  0  0  0  0  0  0  0
   45.9517   -3.5726   -3.0880 C   0  0  0  0  0  0  0  0  0  0  0  0
   46.9264   -4.6912   -2.7807 C   0  0  0  0  0  0  0  0  0  0  0  0
 35 36  1  0  0  0
 36 34  1  0  0  0
 34  1  1  0  0  0
  1  2  2  0  0  0
  1  3  1  0  0  0
  3  4  1  0  0  0
  4  5  2  0  0  0
  4  6  1  0  0  0
  6  7  1  0  0  0
  7  8  1  0  0  0
  6  9  1  0  0  0
  9 10  2  0  0  0
 10 11  1  0  0  0
 11 12  2  0  0  0
 12 13  1  0  0  0
 13 14  1  0  0  0
 14 15  2  0  0  0
 15 21  1  0  0  0
 21 23  1  0  0  0
 23 24  2  0  0  0
 24 25  1  0  0  0
 25 26  2  0  0  0
 26 27  1  0  0  0
 27 28  1  0  0  0
 28 29  1  0  0  0
 29 30  1  0  0  0
 29 31  1  0  0  0
 31 32  2  0  0  0
 15 16  1  0  0  0
 16 17  1  0  0  0
 16 18  1  0  0  0
 10 19  1  0  0  0
 19 20  2  0  0  0
 19  3  1  0  0  0
  8  6  1  0  0  0
 18  9  1  0  0  0
 18 13  2  0  0  0
 32 23  1  0  0  0
 31 26  1  0  0  0
 21 22  1  0  0  0
 30 33  1  0  0  0
M  END
> <minimizedAffinity>
-9.93670

> <CNNscore>
0.7920497060

> <CNNaffinity>
7.5196561813

> <CNN_VS>
5.9559416771

> <CNNaffinity_variance>
0.2516259849

$$$$
[H]OC1([H])c2c([H])c(N([H])c3nc4c([H])c([H])c5c(c4n3C([H])([H])[H])C3(C(=O)N(C(=O)OC([H])([H])C([H])([H])[H])C5=O)C([H])([H])C3([H])[H])c([H])c([H])c2C([H])([H])C1([H])[H]


 36 41  0  0  0  0  0  0  0  0999 V2000
   48.9542   -4.2276   -3.8717 C   0  0  0  0  0  0  0  0  0  0  0  0
   49.1145   -5.1027   -2.9957 O   0  0  0  0  0  0  0  0  0  0  0  0
   49.9010   -4.2146   -4.9663 N   0  0  0  0  0  0  0  0  0  0  0  0
   50.9951   -5.1401   -4.9953 C   0  0  0  0  0  0  0  0  0  0  0  0
   51.4768   -5.5813   -3.9374 O   0  0  0  0  0  0  0  0  0  0  0  0
   51.4982   -5.5230   -6.3671 C   0  0  0  0  0  0  0  0  0  0  0  0
   50.2062   -6.0418   -7.1449 C   0  0  0  0  0  0  0  0  0  0  0  0
   51.3667   -6.8478   -6.8879 C   0  0  0  0  0  0  0  0  0  0  0  0
   51.8790   -4.2514   -7.0405 C   0  0  0  0  0  0  0  0  0  0  0  0
   50.8605   -3.3157   -7.0518 C   0  0  0  0  0  0  0  0  0  0  0  0
   50.9894   -2.1997   -7.9055 C   0  0  0  0  0  0  0  0  0  0  0  0
   52.1149   -2.0850   -8.6743 C   0  0  0  0  0  0  0  0  0  0  0  0
   53.1147   -3.0316   -8.6249 C   0  0  0  0  0  0  0  0  0  0  0  0
   54.3162   -3.1449   -9.2199 N   0  0  0  0  0  0  0  0  0  0  0  0
   54.9646   -4.2294   -8.8219 C   0  0  0  0  0  0  0  0  0  0  0  0
   54.1507   -4.8741   -7.9116 N   0  0  0  0  0  0  0  0  0  0  0  0
   54.4936   -6.0402   -7.1586 C   0  0  0  0  0  0  0  0  0  0  0  0
   53.0285   -4.1541   -7.7971 C   0  0  0  0  0  0  0  0  0  0  0  0
   49.8122   -3.2626   -6.0157 C   0  0  0  0  0  0  0  0  0  0  0  0
   48.8979   -2.4303   -6.0552 O   0  0  0  0  0  0  0  0  0  0  0  0
   56.2350   -4.7495   -9.1783 N   0  0  0  0  0  0  0  0  0  0  0  0
   56.7669   -5.3796   -8.4876 H   0  0  0  0  0  0  0  0  0  0  0  0
   56.9181   -4.5395  -10.3947 C   0  0  0  0  0  0  0  0  0  0  0  0
   58.3175   -4.6357  -10.4386 C   0  0  0  0  0  0  0  0  0  0  0  0
   59.0049   -4.4481  -11.6165 C   0  0  0  0  0  0  0  0  0  0  0  0
   58.3587   -4.1593  -12.7986 C   0  0  0  0  0  0  0  0  0  0  0  0
   58.8297   -3.9104  -14.1832 C   0  0  0  0  0  0  0  0  0  0  0  0
   57.6936   -3.1169  -14.8119 C   0  0  0  0  0  0  0  0  0  0  0  0
   56.4887   -3.7453  -14.1614 C   0  0  0  0  0  0  0  0  0  0  0  0
   55.4147   -2.8356  -14.0888 O   0  0  0  0  0  0  0  0  0  0  0  0
   57.0020   -4.0596  -12.7888 C   0  0  0  0  0  0  0  0  0  0  0  0
   56.3143   -4.2542  -11.5776 C   0  0  0  0  0  0  0  0  0  0  0  0
   55.3703   -2.5244  -13.1593 H   0  0  0  0  0  0  0  0  0  0  0  0
   47.9154   -3.3410   -3.7605 O   0  0  0  0  0  0  0  0  0  0  0  0
   45.8534   -4.0272   -2.6765 C   0  0  0  0  0  0  0  0  0  0  0  0
   46.5657   -3.6778   -3.9673 C   0  0  0  0  0  0  0  0  0  0  0  0
 35 36  1  0  0  0
 36 34  1  0  0  0
 34  1  1  0  0  0
  1  2  2  0  0  0
  1  3  1  0  0  0
  3  4  1  0  0  0
  4  5  2  0  0  0
  4  6  1  0  0  0
  6  7  1  0  0  0
  7  8  1  0  0  0
  6  9  1  0  0  0
  9 10  2  0  0  0
 10 11  1  0  0  0
 11 12  2  0  0  0
 12 13  1  0  0  0
 13 14  1  0  0  0
 14 15  2  0  0  0
 15 21  1  0  0  0
 21 23  1  0  0  0
 23 24  2  0  0  0
 24 25  1  0  0  0
 25 26  2  0  0  0
 26 27  1  0  0  0
 27 28  1  0  0  0
 28 29  1  0  0  0
 29 30  1  0  0  0
 29 31  1  0  0  0
 31 32  2  0  0  0
 15 16  1  0  0  0
 16 17  1  0  0  0
 16 18  1  0  0  0
 10 19  1  0  0  0
 19 20  2  0  0  0
 19  3  1  0  0  0
  8  6  1  0  0  0
 18  9  1  0  0  0
 18 13  2  0  0  0
 32 23  1  0  0  0
 31 26  1  0  0  0
 21 22  1  0  0  0
 30 33  1  0  0  0
M  END
> <minimizedAffinity>
-9.89073

> <CNNscore>
0.6593347192

> <CNNaffinity>
7.2557945251

> <CNN_VS>
4.7839970589

> <CNNaffinity_variance>
0.2966423631

$$$$
[H]OC1([H])c2c([H])c(N([H])c3nc4c([H])c([H])c5c(c4n3C([H])([H])[H])C3(C(=O)N(C(=O)OC([H])([H])C([H])([H])[H])C5=O)C([H])([H])C3([H])[H])c([H])c([H])c2C([H])([H])C1([H])[H]


 36 41  0  0  0  0  0  0  0  0999 V2000
   59.4370   -6.3163   -8.3239 C   0  0  0  0  0  0  0  0  0  0  0  0
   59.6271   -6.8236   -7.1991 O   0  0  0  0  0  0  0  0  0  0  0  0
   58.1931   -5.6026   -8.5195 N   0  0  0  0  0  0  0  0  0  0  0  0
   57.2164   -5.5388   -7.4724 C   0  0  0  0  0  0  0  0  0  0  0  0
   57.1291   -6.4529   -6.6342 O   0  0  0  0  0  0  0  0  0  0  0  0
   56.3326   -4.3140   -7.4693 C   0  0  0  0  0  0  0  0  0  0  0  0
   57.3443   -3.0812   -7.4707 C   0  0  0  0  0  0  0  0  0  0  0  0
   56.3871   -3.3338   -6.4303 C   0  0  0  0  0  0  0  0  0  0  0  0
   55.6666   -4.2782   -8.8001 C   0  0  0  0  0  0  0  0  0  0  0  0
   56.5583   -4.3303   -9.8561 C   0  0  0  0  0  0  0  0  0  0  0  0
   56.0844   -4.0090  -11.1456 C   0  0  0  0  0  0  0  0  0  0  0  0
   54.7678   -3.6712  -11.2984 C   0  0  0  0  0  0  0  0  0  0  0  0
   53.9067   -3.6440  -10.2233 C   0  0  0  0  0  0  0  0  0  0  0  0
   52.5899   -3.3992  -10.0943 N   0  0  0  0  0  0  0  0  0  0  0  0
   52.1818   -3.5372   -8.8417 C   0  0  0  0  0  0  0  0  0  0  0  0
   53.2871   -3.8936   -8.0948 N   0  0  0  0  0  0  0  0  0  0  0  0
   53.2865   -4.2354   -6.7064 C   0  0  0  0  0  0  0  0  0  0  0  0
   54.3324   -3.9515   -8.9283 C   0  0  0  0  0  0  0  0  0  0  0  0
   57.8748   -4.9882   -9.7591 C   0  0  0  0  0  0  0  0  0  0  0  0
   58.6664   -5.0061  -10.7094 O   0  0  0  0  0  0  0  0  0  0  0  0
   50.9051   -3.3764   -8.2452 N   0  0  0  0  0  0  0  0  0  0  0  0
   50.0942   -2.9675   -8.8215 H   0  0  0  0  0  0  0  0  0  0  0  0
   50.5466   -3.7136   -6.9230 C   0  0  0  0  0  0  0  0  0  0  0  0
   49.6281   -2.9179   -6.2210 C   0  0  0  0  0  0  0  0  0  0  0  0
   49.2529   -3.2345   -4.9349 C   0  0  0  0  0  0  0  0  0  0  0  0
   49.7561   -4.3374   -4.2803 C   0  0  0  0  0  0  0  0  0  0  0  0
   49.5394   -4.9065   -2.9274 C   0  0  0  0  0  0  0  0  0  0  0  0
   50.7904   -5.7377   -2.6827 C   0  0  0  0  0  0  0  0  0  0  0  0
   51.0744   -6.2715   -4.0626 C   0  0  0  0  0  0  0  0  0  0  0  0
   52.4477   -6.5368   -4.2351 O   0  0  0  0  0  0  0  0  0  0  0  0
   50.6486   -5.1289   -4.9342 C   0  0  0  0  0  0  0  0  0  0  0  0
   51.0216   -4.7923   -6.2477 C   0  0  0  0  0  0  0  0  0  0  0  0
   52.8108   -5.8050   -4.7787 H   0  0  0  0  0  0  0  0  0  0  0  0
   60.3903   -6.4544   -9.2983 O   0  0  0  0  0  0  0  0  0  0  0  0
   62.7317   -6.5947   -9.9274 C   0  0  0  0  0  0  0  0  0  0  0  0
   61.5809   -7.1858   -9.1388 C   0  0  0  0  0  0  0  0  0  0  0  0
 35 36  1  0  0  0
 36 34  1  0  0  0
 34  1  1  0  0  0
  1  2  2  0  0  0
  1  3  1  0  0  0
  3  4  1  0  0  0
  4  5  2  0  0  0
  4  6  1  0  0  0
  6  7  1  0  0  0
  7  8  1  0  0  0
  6  9  1  0  0  0
  9 10  2  0  0  0
 10 11  1  0  0  0
 11 12  2  0  0  0
 12 13  1  0  0  0
 13 14  1  0  0  0
 14 15  2  0  0  0
 15 21  1  0  0  0
 21 23  1  0  0  0
 23 24  2  0  0  0
 24 25  1  0  0  0
 25 26  2  0  0  0
 26 27  1  0  0  0
 27 28  1  0  0  0
 28 29  1  0  0  0
 29 30  1  0  0  0
 29 31  1  0  0  0
 31 32  2  0  0  0
 15 16  1  0  0  0
 16 17  1  0  0  0
 16 18  1  0  0  0
 10 19  1  0  0  0
 19 20  2  0  0  0
 19  3  1  0  0  0
  8  6  1  0  0  0
 18  9  1  0  0  0
 18 13  2  0  0  0
 32 23  1  0  0  0
 31 26  1  0  0  0
 21 22  1  0  0  0
 30 33  1  0  0  0
M  END
> <minimizedAffinity>
-4.90086

> <CNNscore>
0.6350378990

> <CNNaffinity>
7.0844054222

> <CNN_VS>
4.4988660812

> <CNNaffinity_variance>
0.4060699344

$$$$
[H]OC1([H])c2c([H])c(N([H])c3nc4c([H])c([H])c5c(c4n3C([H])([H])[H])C3(C(=O)N(C(=O)OC([H])([H])C([H])([H])[H])C5=O)C([H])([H])C3([H])[H])c([H])c([H])c2C([H])([H])C1([H])[H]


 36 41  0  0  0  0  0  0  0  0999 V2000
   62.7233  -12.9332  -14.8092 C   0  0  0  0  0  0  0  0  0  0  0  0
   62.0435  -13.9654  -14.9857 O   0  0  0  0  0  0  0  0  0  0  0  0
   62.8473  -12.4543  -13.4490 N   0  0  0  0  0  0  0  0  0  0  0  0
   62.1688  -13.1206  -12.3766 C   0  0  0  0  0  0  0  0  0  0  0  0
   61.1064  -13.7318  -12.5849 O   0  0  0  0  0  0  0  0  0  0  0  0
   62.8260  -13.0239  -11.0201 C   0  0  0  0  0  0  0  0  0  0  0  0
   64.3156  -13.5446  -11.2506 C   0  0  0  0  0  0  0  0  0  0  0  0
   63.3784  -14.1621  -10.3546 C   0  0  0  0  0  0  0  0  0  0  0  0
   62.9582  -11.5710  -10.7244 C   0  0  0  0  0  0  0  0  0  0  0  0
   63.6122  -10.8703  -11.7216 C   0  0  0  0  0  0  0  0  0  0  0  0
   64.0589   -9.5630  -11.4352 C   0  0  0  0  0  0  0  0  0  0  0  0
   63.8186   -9.0420  -10.1935 C   0  0  0  0  0  0  0  0  0  0  0  0
   63.1511   -9.7666   -9.2305 C   0  0  0  0  0  0  0  0  0  0  0  0
   62.7488   -9.4938   -7.9758 N   0  0  0  0  0  0  0  0  0  0  0  0
   62.0854  -10.5065   -7.4381 C   0  0  0  0  0  0  0  0  0  0  0  0
   62.0431  -11.5093   -8.3864 N   0  0  0  0  0  0  0  0  0  0  0  0
   61.3437  -12.7503   -8.2642 C   0  0  0  0  0  0  0  0  0  0  0  0
   62.6936  -11.0654   -9.4684 C   0  0  0  0  0  0  0  0  0  0  0  0
   63.5963  -11.2898  -13.1355 C   0  0  0  0  0  0  0  0  0  0  0  0
   64.2049  -10.6603  -14.0093 O   0  0  0  0  0  0  0  0  0  0  0  0
   61.4916  -10.6696   -6.1605 N   0  0  0  0  0  0  0  0  0  0  0  0
   60.4908  -11.0557   -6.0821 H   0  0  0  0  0  0  0  0  0  0  0  0
   62.0869  -10.3821   -4.9141 C   0  0  0  0  0  0  0  0  0  0  0  0
   63.0214  -11.2715   -4.3616 C   0  0  0  0  0  0  0  0  0  0  0  0
   63.6252  -11.0059   -3.1533 C   0  0  0  0  0  0  0  0  0  0  0  0
   63.3442   -9.8648   -2.4342 C   0  0  0  0  0  0  0  0  0  0  0  0
   63.8280   -9.3328   -1.1365 C   0  0  0  0  0  0  0  0  0  0  0  0
   62.7206   -8.3840   -0.7018 C   0  0  0  0  0  0  0  0  0  0  0  0
   62.2760   -7.8117   -2.0226 C   0  0  0  0  0  0  0  0  0  0  0  0
   60.9259   -7.4099   -1.9768 O   0  0  0  0  0  0  0  0  0  0  0  0
   62.4425   -8.9825   -2.9434 C   0  0  0  0  0  0  0  0  0  0  0  0
   61.8345   -9.2681   -4.1789 C   0  0  0  0  0  0  0  0  0  0  0  0
   60.4103   -8.0968   -2.4512 H   0  0  0  0  0  0  0  0  0  0  0  0
   63.3070  -12.3154  -15.8840 O   0  0  0  0  0  0  0  0  0  0  0  0
   65.4484  -13.4607  -15.8556 C   0  0  0  0  0  0  0  0  0  0  0  0
   64.3086  -12.8987  -16.6807 C   0  0  0  0  0  0  0  0  0  0  0  0
 35 36  1  0  0  0
 36 34  1  0  0  0
 34  1  1  0  0  0
  1  2  2  0  0  0
  1  3  1  0  0  0
  3  4  1  0  0  0
  4  5  2  0  0  0
  4  6  1  0  0  0
  6  7  1  0  0  0
  7  8  1  0  0  0
  6  9  1  0  0  0
  9 10  2  0  0  0
 10 11  1  0  0  0
 11 12  2  0  0  0
 12 13  1  0  0  0
 13 14  1  0  0  0
 14 15  2  0  0  0
 15 21  1  0  0  0
 21 23  1  0  0  0
 23 24  2  0  0  0
 24 25  1  0  0  0
 25 26  2  0  0  0
 26 27  1  0  0  0
 27 28  1  0  0  0
 28 29  1  0  0  0
 29 30  1  0  0  0
 29 31  1  0  0  0
 31 32  2  0  0  0
 15 16  1  0  0  0
 16 17  1  0  0  0
 16 18  1  0  0  0
 10 19  1  0  0  0
 19 20  2  0  0  0
 19  3  1  0  0  0
  8  6  1  0  0  0
 18  9  1  0  0  0
 18 13  2  0  0  0
 32 23  1  0  0  0
 31 26  1  0  0  0
 21 22  1  0  0  0
 30 33  1  0  0  0
M  END
> <minimizedAffinity>
-2.97504

> <CNNscore>
0.4852977395

> <CNNaffinity>
5.2999272346

> <CNN_VS>
2.5720427036

> <CNNaffinity_variance>
0.3920824230

$$$$
[H]OC1([H])c2c([H])c(N([H])c3nc4c([H])c([H])c5c(c4n3C([H])([H])[H])C3(C(=O)N(C(=O)OC([H])([H])C([H])([H])[H])C5=O)C([H])([H])C3([H])[H])c([H])c([H])c2C([H])([H])C1([H])[H]


 36 41  0  0  0  0  0  0  0  0999 V2000
   53.2579   -6.1927   -1.3719 C   0  0  0  0  0  0  0  0  0  0  0  0
   54.2929   -5.9768   -0.7079 O   0  0  0  0  0  0  0  0  0  0  0  0
   53.3507   -6.0187   -2.8058 N   0  0  0  0  0  0  0  0  0  0  0  0
   54.5707   -5.5681   -3.4083 C   0  0  0  0  0  0  0  0  0  0  0  0
   55.3561   -4.8410   -2.7757 O   0  0  0  0  0  0  0  0  0  0  0  0
   54.8167   -6.0318   -4.8246 C   0  0  0  0  0  0  0  0  0  0  0  0
   54.6878   -7.6201   -4.7617 C   0  0  0  0  0  0  0  0  0  0  0  0
   55.8793   -6.9261   -5.1631 C   0  0  0  0  0  0  0  0  0  0  0  0
   53.6464   -5.5731   -5.6218 C   0  0  0  0  0  0  0  0  0  0  0  0
   52.4350   -5.9822   -5.0945 C   0  0  0  0  0  0  0  0  0  0  0  0
   51.2837   -5.8695   -5.9023 C   0  0  0  0  0  0  0  0  0  0  0  0
   51.4113   -5.3533   -7.1625 C   0  0  0  0  0  0  0  0  0  0  0  0
   52.6340   -4.9435   -7.6475 C   0  0  0  0  0  0  0  0  0  0  0  0
   53.0320   -4.3725   -8.7990 N   0  0  0  0  0  0  0  0  0  0  0  0
   54.3303   -4.1097   -8.7976 C   0  0  0  0  0  0  0  0  0  0  0  0
   54.8248   -4.5283   -7.5782 N   0  0  0  0  0  0  0  0  0  0  0  0
   56.1645   -4.3518   -7.1110 C   0  0  0  0  0  0  0  0  0  0  0  0
   53.8007   -5.0394   -6.8846 C   0  0  0  0  0  0  0  0  0  0  0  0
   52.2347   -6.2369   -3.6556 C   0  0  0  0  0  0  0  0  0  0  0  0
   51.1483   -6.6222   -3.2067 O   0  0  0  0  0  0  0  0  0  0  0  0
   55.1734   -3.5281   -9.7786 N   0  0  0  0  0  0  0  0  0  0  0  0
   54.8762   -2.6161  -10.2653 H   0  0  0  0  0  0  0  0  0  0  0  0
   56.4238   -4.0187  -10.2101 C   0  0  0  0  0  0  0  0  0  0  0  0
   56.7476   -4.0088  -11.5756 C   0  0  0  0  0  0  0  0  0  0  0  0
   57.9665   -4.4699  -12.0191 C   0  0  0  0  0  0  0  0  0  0  0  0
   58.9191   -4.9592  -11.1522 C   0  0  0  0  0  0  0  0  0  0  0  0
   60.2831   -5.5109  -11.3425 C   0  0  0  0  0  0  0  0  0  0  0  0
   60.5067   -6.3541  -10.0956 C   0  0  0  0  0  0  0  0  0  0  0  0
   59.7901   -5.5422   -9.0481 C   0  0  0  0  0  0  0  0  0  0  0  0
   59.3279   -6.3589   -7.9966 O   0  0  0  0  0  0  0  0  0  0  0  0
   58.6353   -4.9818   -9.8219 C   0  0  0  0  0  0  0  0  0  0  0  0
   57.3858   -4.5071   -9.3847 C   0  0  0  0  0  0  0  0  0  0  0  0
   58.3621   -6.4706   -8.1291 H   0  0  0  0  0  0  0  0  0  0  0  0
   52.1094   -6.5749   -0.7299 O   0  0  0  0  0  0  0  0  0  0  0  0
   50.6468   -8.4719   -0.3295 C   0  0  0  0  0  0  0  0  0  0  0  0
   51.9635   -7.7852   -0.0286 C   0  0  0  0  0  0  0  0  0  0  0  0
 35 36  1  0  0  0
 36 34  1  0  0  0
 34  1  1  0  0  0
  1  2  2  0  0  0
  1  3  1  0  0  0
  3  4  1  0  0  0
  4  5  2  0  0  0
  4  6  1  0  0  0
  6  7  1  0  0  0
  7  8  1  0  0  0
  6  9  1  0  0  0
  9 10  2  0  0  0
 10 11  1  0  0  0
 11 12  2  0  0  0
 12 13  1  0  0  0
 13 14  1  0  0  0
 14 15  2  0  0  0
 15 21  1  0  0  0
 21 23  1  0  0  0
 23 24  2  0  0  0
 24 25  1  0  0  0
 25 26  2  0  0  0
 26 27  1  0  0  0
 27 28  1  0  0  0
 28 29  1  0  0  0
 29 30  1  0  0  0
 29 31  1  0  0  0
 31 32  2  0  0  0
 15 16  1  0  0  0
 16 17  1  0  0  0
 16 18  1  0  0  0
 10 19  1  0  0  0
 19 20  2  0  0  0
 19  3  1  0  0  0
  8  6  1  0  0  0
 18  9  1  0  0  0
 18 13  2  0  0  0
 32 23  1  0  0  0
 31 26  1  0  0  0
 21 22  1  0  0  0
 30 33  1  0  0  0
M  END
> <minimizedAffinity>
-8.80511

> <CNNscore>
0.4842575192

> <CNNaffinity>
6.9491372108

> <CNN_VS>
3.3651719093

> <CNNaffinity_variance>
0.1817570329

$$$$
[H]OC1([H])c2c([H])c(N([H])c3nc4c([H])c([H])c5c(c4n3C([H])([H])[H])C3(C(=O)N(C(=O)OC([H])([H])C([H])([H])[H])C5=O)C([H])([H])C3([H])[H])c([H])c([H])c2C([H])([H])C1([H])[H]


 36 41  0  0  0  0  0  0  0  0999 V2000
   64.0188   -6.7737  -11.9305 C   0  0  0  0  0  0  0  0  0  0  0  0
   63.1500   -5.8824  -12.0279 O   0  0  0  0  0  0  0  0  0  0  0  0
   63.8676   -7.7211  -10.8468 N   0  0  0  0  0  0  0  0  0  0  0  0
   62.7911   -7.5912   -9.9095 C   0  0  0  0  0  0  0  0  0  0  0  0
   62.3083   -6.4744   -9.6536 O   0  0  0  0  0  0  0  0  0  0  0  0
   62.3071   -8.8759   -9.2796 C   0  0  0  0  0  0  0  0  0  0  0  0
   61.9661   -9.8304  -10.5108 C   0  0  0  0  0  0  0  0  0  0  0  0
   61.0045   -9.4080   -9.5312 C   0  0  0  0  0  0  0  0  0  0  0  0
   63.4933   -9.4897   -8.6224 C   0  0  0  0  0  0  0  0  0  0  0  0
   64.5679   -9.6486   -9.4786 C   0  0  0  0  0  0  0  0  0  0  0  0
   65.6330  -10.4767   -9.0655 C   0  0  0  0  0  0  0  0  0  0  0  0
   65.5636  -11.0761   -7.8380 C   0  0  0  0  0  0  0  0  0  0  0  0
   64.4818  -10.8821   -7.0072 C   0  0  0  0  0  0  0  0  0  0  0  0
   64.1797  -11.2982   -5.7638 N   0  0  0  0  0  0  0  0  0  0  0  0
   63.0213  -10.8095   -5.3468 C   0  0  0  0  0  0  0  0  0  0  0  0
   62.5240  -10.0246   -6.3681 N   0  0  0  0  0  0  0  0  0  0  0  0
   61.3378   -9.2283   -6.3126 C   0  0  0  0  0  0  0  0  0  0  0  0
   63.4034  -10.0735   -7.3757 C   0  0  0  0  0  0  0  0  0  0  0  0
   64.7981   -8.7738  -10.6435 C   0  0  0  0  0  0  0  0  0  0  0  0
   65.7544   -8.9455  -11.4091 O   0  0  0  0  0  0  0  0  0  0  0  0
   62.3122  -10.9790   -4.1303 N   0  0  0  0  0  0  0  0  0  0  0  0
   62.1844  -11.9648   -3.7195 H   0  0  0  0  0  0  0  0  0  0  0  0
   61.7320   -9.9594   -3.3464 C   0  0  0  0  0  0  0  0  0  0  0  0
   62.5505   -9.0198   -2.7008 C   0  0  0  0  0  0  0  0  0  0  0  0
   62.0069   -8.0083   -1.9416 C   0  0  0  0  0  0  0  0  0  0  0  0
   60.6456   -7.8702   -1.7801 C   0  0  0  0  0  0  0  0  0  0  0  0
   59.8003   -6.9039   -1.0366 C   0  0  0  0  0  0  0  0  0  0  0  0
   58.4955   -7.6576   -0.8238 C   0  0  0  0  0  0  0  0  0  0  0  0
   58.3899   -8.4477   -2.1022 C   0  0  0  0  0  0  0  0  0  0  0  0
   57.6527   -9.6335   -1.9104 O   0  0  0  0  0  0  0  0  0  0  0  0
   59.8253   -8.7654   -2.3937 C   0  0  0  0  0  0  0  0  0  0  0  0
   60.3961   -9.7929   -3.1659 C   0  0  0  0  0  0  0  0  0  0  0  0
   58.3028  -10.3674   -1.8724 H   0  0  0  0  0  0  0  0  0  0  0  0
   65.0506   -6.8142  -12.8312 O   0  0  0  0  0  0  0  0  0  0  0  0
   65.2601   -4.8624  -14.2610 C   0  0  0  0  0  0  0  0  0  0  0  0
   64.9619   -6.3440  -14.1537 C   0  0  0  0  0  0  0  0  0  0  0  0
 35 36  1  0  0  0
 36 34  1  0  0  0
 34  1  1  0  0  0
  1  2  2  0  0  0
  1  3  1  0  0  0
  3  4  1  0  0  0
  4  5  2  0  0  0
  4  6  1  0  0  0
  6  7  1  0  0  0
  7  8  1  0  0  0
  6  9  1  0  0  0
  9 10  2  0  0  0
 10 11  1  0  0  0
 11 12  2  0  0  0
 12 13  1  0  0  0
 13 14  1  0  0  0
 14 15  2  0  0  0
 15 21  1  0  0  0
 21 23  1  0  0  0
 23 24  2  0  0  0
 24 25  1  0  0  0
 25 26  2  0  0  0
 26 27  1  0  0  0
 27 28  1  0  0  0
 28 29  1  0  0  0
 29 30  1  0  0  0
 29 31  1  0  0  0
 31 32  2  0  0  0
 15 16  1  0  0  0
 16 17  1  0  0  0
 16 18  1  0  0  0
 10 19  1  0  0  0
 19 20  2  0  0  0
 19  3  1  0  0  0
  8  6  1  0  0  0
 18  9  1  0  0  0
 18 13  2  0  0  0
 32 23  1  0  0  0
 31 26  1  0  0  0
 21 22  1  0  0  0
 30 33  1  0  0  0
M  END
> <minimizedAffinity>
-3.30469

> <CNNscore>
0.4552510083

> <CNNaffinity>
5.6783666611

> <CNN_VS>
2.5850820541

> <CNNaffinity_variance>
1.0843160152

$$$$
[H]OC1([H])c2c([H])c(N([H])c3nc4c([H])c([H])c5c(c4n3C([H])([H])[H])C3(C(=O)N(C(=O)OC([H])([H])C([H])([H])[H])C5=O)C([H])([H])C3([H])[H])c([H])c([H])c2C([H])([H])C1([H])[H]


 36 41  0  0  0  0  0  0  0  0999 V2000
   57.3463   -6.9627   -3.3749 C   0  0  0  0  0  0  0  0  0  0  0  0
   57.4919   -6.0557   -4.2204 O   0  0  0  0  0  0  0  0  0  0  0  0
   58.4438   -7.8928   -3.2155 N   0  0  0  0  0  0  0  0  0  0  0  0
   59.6128   -7.7893   -4.0383 C   0  0  0  0  0  0  0  0  0  0  0  0
   59.5378   -7.3132   -5.1844 O   0  0  0  0  0  0  0  0  0  0  0  0
   60.8986   -8.2877   -3.4222 C   0  0  0  0  0  0  0  0  0  0  0  0
   61.0215   -7.4993   -2.0414 C   0  0  0  0  0  0  0  0  0  0  0  0
   61.9838   -7.4134   -3.1039 C   0  0  0  0  0  0  0  0  0  0  0  0
   60.6562   -9.7071   -3.0448 C   0  0  0  0  0  0  0  0  0  0  0  0
   59.5420   -9.8740   -2.2426 C   0  0  0  0  0  0  0  0  0  0  0  0
   59.3751  -11.1092   -1.5814 C   0  0  0  0  0  0  0  0  0  0  0  0
   60.3116  -12.0884   -1.7687 C   0  0  0  0  0  0  0  0  0  0  0  0
   61.4016  -11.8888   -2.5873 C   0  0  0  0  0  0  0  0  0  0  0  0
   62.4245  -12.6706   -2.9783 N   0  0  0  0  0  0  0  0  0  0  0  0
   63.2260  -12.0472   -3.8291 C   0  0  0  0  0  0  0  0  0  0  0  0
   62.7088  -10.7805   -4.0154 N   0  0  0  0  0  0  0  0  0  0  0  0
   63.2051   -9.7978   -4.9277 C   0  0  0  0  0  0  0  0  0  0  0  0
   61.6092  -10.6813   -3.2592 C   0  0  0  0  0  0  0  0  0  0  0  0
   58.3838   -8.9617   -2.2832 C   0  0  0  0  0  0  0  0  0  0  0  0
   57.4053   -9.1168   -1.5425 O   0  0  0  0  0  0  0  0  0  0  0  0
   64.4101  -12.4681   -4.4866 N   0  0  0  0  0  0  0  0  0  0  0  0
   65.3494  -12.4421   -3.9634 H   0  0  0  0  0  0  0  0  0  0  0  0
   64.5112  -12.9513   -5.8083 C   0  0  0  0  0  0  0  0  0  0  0  0
   65.6350  -13.6958   -6.1985 C   0  0  0  0  0  0  0  0  0  0  0  0
   65.7497  -14.1889   -7.4786 C   0  0  0  0  0  0  0  0  0  0  0  0
   64.7761  -13.9776   -8.4303 C   0  0  0  0  0  0  0  0  0  0  0  0
   64.6372  -14.3766   -9.8525 C   0  0  0  0  0  0  0  0  0  0  0  0
   63.6576  -13.3583  -10.4173 C   0  0  0  0  0  0  0  0  0  0  0  0
   62.7357  -13.1422   -9.2455 C   0  0  0  0  0  0  0  0  0  0  0  0
   62.1555  -11.8583   -9.2819 O   0  0  0  0  0  0  0  0  0  0  0  0
   63.6741  -13.2597   -8.0827 C   0  0  0  0  0  0  0  0  0  0  0  0
   63.5717  -12.7628   -6.7710 C   0  0  0  0  0  0  0  0  0  0  0  0
   62.6284  -11.3155   -8.6151 H   0  0  0  0  0  0  0  0  0  0  0  0
   56.1835   -7.0353   -2.6537 O   0  0  0  0  0  0  0  0  0  0  0  0
   54.2658   -6.2273   -3.9058 C   0  0  0  0  0  0  0  0  0  0  0  0
   54.9370   -7.3885   -3.2009 C   0  0  0  0  0  0  0  0  0  0  0  0
 35 36  1  0  0  0
 36 34  1  0  0  0
 34  1  1  0  0  0
  1  2  2  0  0  0
  1  3  1  0  0  0
  3  4  1  0  0  0
  4  5  2  0  0  0
  4  6  1  0  0  0
  6  7  1  0  0  0
  7  8  1  0  0  0
  6  9  1  0  0  0
  9 10  2  0  0  0
 10 11  1  0  0  0
 11 12  2  0  0  0
 12 13  1  0  0  0
 13 14  1  0  0  0
 14 15  2  0  0  0
 15 21  1  0  0  0
 21 23  1  0  0  0
 23 24  2  0  0  0
 24 25  1  0  0  0
 25 26  2  0  0  0
 26 27  1  0  0  0
 27 28  1  0  0  0
 28 29  1  0  0  0
 29 30  1  0  0  0
 29 31  1  0  0  0
 31 32  2  0  0  0
 15 16  1  0  0  0
 16 17  1  0  0  0
 16 18  1  0  0  0
 10 19  1  0  0  0
 19 20  2  0  0  0
 19  3  1  0  0  0
  8  6  1  0  0  0
 18  9  1  0  0  0
 18 13  2  0  0  0
 32 23  1  0  0  0
 31 26  1  0  0  0
 21 22  1  0  0  0
 30 33  1  0  0  0
M  END
> <minimizedAffinity>
-3.09119

> <CNNscore>
0.4385049939

> <CNNaffinity>
5.5927877426

> <CNN_VS>
2.4524652958

> <CNNaffinity_variance>
1.0777587891

$$$$
[H]OC1([H])c2c([H])c(N([H])c3nc4c([H])c([H])c5c(c4n3C([H])([H])[H])C3(C(=O)N(C(=O)OC([H])([H])C([H])([H])[H])C5=O)C([H])([H])C3([H])[H])c([H])c([H])c2C([H])([H])C1([H])[H]


 36 41  0  0  0  0  0  0  0  0999 V2000
   62.3607  -13.0391  -12.7077 C   0  0  0  0  0  0  0  0  0  0  0  0
   61.6964  -14.0906  -12.5995 O   0  0  0  0  0  0  0  0  0  0  0  0
   62.6957  -12.3461  -11.4820 N   0  0  0  0  0  0  0  0  0  0  0  0
   62.2308  -12.8349  -10.2174 C   0  0  0  0  0  0  0  0  0  0  0  0
   61.1699  -13.4786  -10.1408 O   0  0  0  0  0  0  0  0  0  0  0  0
   63.1035  -12.5162   -9.0265 C   0  0  0  0  0  0  0  0  0  0  0  0
   64.5498  -13.0576   -9.4244 C   0  0  0  0  0  0  0  0  0  0  0  0
   63.7985  -13.5284   -8.2946 C   0  0  0  0  0  0  0  0  0  0  0  0
   63.2340  -11.0338   -8.9912 C   0  0  0  0  0  0  0  0  0  0  0  0
   63.6863  -10.4991  -10.1839 C   0  0  0  0  0  0  0  0  0  0  0  0
   64.1301   -9.1598  -10.1886 C   0  0  0  0  0  0  0  0  0  0  0  0
   64.0849   -8.4467   -9.0222 C   0  0  0  0  0  0  0  0  0  0  0  0
   63.6143   -9.0107   -7.8567 C   0  0  0  0  0  0  0  0  0  0  0  0
   63.4202   -8.5415   -6.6106 N   0  0  0  0  0  0  0  0  0  0  0  0
   62.8918   -9.4584   -5.8138 C   0  0  0  0  0  0  0  0  0  0  0  0
   62.7245  -10.6014   -6.5703 N   0  0  0  0  0  0  0  0  0  0  0  0
   62.0984  -11.8109   -6.1353 C   0  0  0  0  0  0  0  0  0  0  0  0
   63.1678  -10.3338   -7.8043 C   0  0  0  0  0  0  0  0  0  0  0  0
   63.4467  -11.1414  -11.4898 C   0  0  0  0  0  0  0  0  0  0  0  0
   63.8776  -10.6573  -12.5434 O   0  0  0  0  0  0  0  0  0  0  0  0
   62.5277   -9.4169   -4.4437 N   0  0  0  0  0  0  0  0  0  0  0  0
   63.1164   -9.9501   -3.7184 H   0  0  0  0  0  0  0  0  0  0  0  0
   61.4374   -8.7176   -3.8845 C   0  0  0  0  0  0  0  0  0  0  0  0
   60.3227   -8.4063   -4.6783 C   0  0  0  0  0  0  0  0  0  0  0  0
   59.2414   -7.7366   -4.1515 C   0  0  0  0  0  0  0  0  0  0  0  0
   59.2013   -7.3428   -2.8318 C   0  0  0  0  0  0  0  0  0  0  0  0
   58.1950   -6.6229   -2.0132 C   0  0  0  0  0  0  0  0  0  0  0  0
   59.0123   -6.0418   -0.8686 C   0  0  0  0  0  0  0  0  0  0  0  0
   60.0335   -7.1264   -0.6441 C   0  0  0  0  0  0  0  0  0  0  0  0
   61.2252   -6.6021   -0.1044 O   0  0  0  0  0  0  0  0  0  0  0  0
   60.2668   -7.6301   -2.0363 C   0  0  0  0  0  0  0  0  0  0  0  0
   61.3635   -8.3151   -2.5893 C   0  0  0  0  0  0  0  0  0  0  0  0
   61.8763   -6.5675   -0.8377 H   0  0  0  0  0  0  0  0  0  0  0  0
   62.7335  -12.5992  -13.9507 O   0  0  0  0  0  0  0  0  0  0  0  0
   61.7063  -12.8880  -16.1323 C   0  0  0  0  0  0  0  0  0  0  0  0
   62.7038  -13.3944  -15.1103 C   0  0  0  0  0  0  0  0  0  0  0  0
 35 36  1  0  0  0
 36 34  1  0  0  0
 34  1  1  0  0  0
  1  2  2  0  0  0
  1  3  1  0  0  0
  3  4  1  0  0  0
  4  5  2  0  0  0
  4  6  1  0  0  0
  6  7  1  0  0  0
  7  8  1  0  0  0
  6  9  1  0  0  0
  9 10  2  0  0  0
 10 11  1  0  0  0
 11 12  2  0  0  0
 12 13  1  0  0  0
 13 14  1  0  0  0
 14 15  2  0  0  0
 15 21  1  0  0  0
 21 23  1  0  0  0
 23 24  2  0  0  0
 24 25  1  0  0  0
 25 26  2  0  0  0
 26 27  1  0  0  0
 27 28  1  0  0  0
 28 29  1  0  0  0
 29 30  1  0  0  0
 29 31  1  0  0  0
 31 32  2  0  0  0
 15 16  1  0  0  0
 16 17  1  0  0  0
 16 18  1  0  0  0
 10 19  1  0  0  0
 19 20  2  0  0  0
 19  3  1  0  0  0
  8  6  1  0  0  0
 18  9  1  0  0  0
 18 13  2  0  0  0
 32 23  1  0  0  0
 31 26  1  0  0  0
 21 22  1  0  0  0
 30 33  1  0  0  0
M  END
> <minimizedAffinity>
-3.94533

> <CNNscore>
0.4039971232

> <CNNaffinity>
5.4492597580

> <CNN_VS>
2.2014851570

> <CNNaffinity_variance>
0.5377910137

$$$$
[H]OC1([H])c2c([H])c(N([H])c3nc4c([H])c([H])c5c(c4n3C([H])([H])[H])C3(C(=O)N(C(=O)OC([H])([H])C([H])([H])[H])C5=O)C([H])([H])C3([H])[H])c([H])c([H])c2C([H])([H])C1([H])[H]


 36 41  0  0  0  0  0  0  0  0999 V2000
   53.6227   -5.5886   -2.3728 C   0  0  0  0  0  0  0  0  0  0  0  0
   54.6333   -5.5916   -1.6398 O   0  0  0  0  0  0  0  0  0  0  0  0
   53.8475   -5.4864   -3.7990 N   0  0  0  0  0  0  0  0  0  0  0  0
   55.1753   -5.3437   -4.3196 C   0  0  0  0  0  0  0  0  0  0  0  0
   56.0623   -4.7936   -3.6441 O   0  0  0  0  0  0  0  0  0  0  0  0
   55.4021   -5.8965   -5.7068 C   0  0  0  0  0  0  0  0  0  0  0  0
   54.9100   -7.4114   -5.6275 C   0  0  0  0  0  0  0  0  0  0  0  0
   56.2524   -7.0188   -5.9536 C   0  0  0  0  0  0  0  0  0  0  0  0
   54.4229   -5.2104   -6.5934 C   0  0  0  0  0  0  0  0  0  0  0  0
   53.1179   -5.3171   -6.1478 C   0  0  0  0  0  0  0  0  0  0  0  0
   52.0788   -4.9724   -7.0379 C   0  0  0  0  0  0  0  0  0  0  0  0
   52.4041   -4.5394   -8.2940 C   0  0  0  0  0  0  0  0  0  0  0  0
   53.7173   -4.4333   -8.6965 C   0  0  0  0  0  0  0  0  0  0  0  0
   54.3106   -4.0047   -9.8256 N   0  0  0  0  0  0  0  0  0  0  0  0
   55.6316   -4.0431   -9.7353 C   0  0  0  0  0  0  0  0  0  0  0  0
   55.9355   -4.5235   -8.4769 N   0  0  0  0  0  0  0  0  0  0  0  0
   57.2462   -4.6402   -7.9176 C   0  0  0  0  0  0  0  0  0  0  0  0
   54.7783   -4.7665   -7.8503 C   0  0  0  0  0  0  0  0  0  0  0  0
   52.7699   -5.4733   -4.7231 C   0  0  0  0  0  0  0  0  0  0  0  0
   51.5970   -5.5876   -4.3471 O   0  0  0  0  0  0  0  0  0  0  0  0
   56.6482   -3.6996  -10.6626 N   0  0  0  0  0  0  0  0  0  0  0  0
   57.5495   -3.2261  -10.3158 H   0  0  0  0  0  0  0  0  0  0  0  0
   56.6259   -3.9233  -12.0554 C   0  0  0  0  0  0  0  0  0  0  0  0
   55.7108   -4.8346  -12.6046 C   0  0  0  0  0  0  0  0  0  0  0  0
   55.6614   -5.0596  -13.9618 C   0  0  0  0  0  0  0  0  0  0  0  0
   56.5000   -4.4072  -14.8390 C   0  0  0  0  0  0  0  0  0  0  0  0
   56.6684   -4.4520  -16.3124 C   0  0  0  0  0  0  0  0  0  0  0  0
   58.0893   -3.9514  -16.5270 C   0  0  0  0  0  0  0  0  0  0  0  0
   58.2122   -2.9136  -15.4418 C   0  0  0  0  0  0  0  0  0  0  0  0
   59.5524   -2.7556  -15.0356 O   0  0  0  0  0  0  0  0  0  0  0  0
   57.3984   -3.5173  -14.3374 C   0  0  0  0  0  0  0  0  0  0  0  0
   57.4363   -3.2984  -12.9487 C   0  0  0  0  0  0  0  0  0  0  0  0
   59.6438   -3.2196  -14.1758 H   0  0  0  0  0  0  0  0  0  0  0  0
   52.3773   -5.6797   -1.8088 O   0  0  0  0  0  0  0  0  0  0  0  0
   52.1078   -8.0922   -1.8782 C   0  0  0  0  0  0  0  0  0  0  0  0
   51.9108   -6.8043   -1.1048 C   0  0  0  0  0  0  0  0  0  0  0  0
 35 36  1  0  0  0
 36 34  1  0  0  0
 34  1  1  0  0  0
  1  2  2  0  0  0
  1  3  1  0  0  0
  3  4  1  0  0  0
  4  5  2  0  0  0
  4  6  1  0  0  0
  6  7  1  0  0  0
  7  8  1  0  0  0
  6  9  1  0  0  0
  9 10  2  0  0  0
 10 11  1  0  0  0
 11 12  2  0  0  0
 12 13  1  0  0  0
 13 14  1  0  0  0
 14 15  2  0  0  0
 15 21  1  0  0  0
 21 23  1  0  0  0
 23 24  2  0  0  0
 24 25  1  0  0  0
 25 26  2  0  0  0
 26 27  1  0  0  0
 27 28  1  0  0  0
 28 29  1  0  0  0
 29 30  1  0  0  0
 29 31  1  0  0  0
 31 32  2  0  0  0
 15 16  1  0  0  0
 16 17  1  0  0  0
 16 18  1  0  0  0
 10 19  1  0  0  0
 19 20  2  0  0  0
 19  3  1  0  0  0
  8  6  1  0  0  0
 18  9  1  0  0  0
 18 13  2  0  0  0
 32 23  1  0  0  0
 31 26  1  0  0  0
 21 22  1  0  0  0
 30 33  1  0  0  0
M  END
> <minimizedAffinity>
-8.62116

> <CNNscore>
0.3637292683

> <CNNaffinity>
6.7076864243

> <CNN_VS>
2.4397819042

> <CNNaffinity_variance>
0.1291055232

$$$$
[H]c1nc(N([H])c2nc(N([H])[H])nc(OC([H])([H])C([H])([H])N(C([H])([H])[H])C([H])([H])[H])c2[H])sc1-c1c([H])c([H])c(OC([H])([H])C2([H])C([H])([H])OC2([H])[H])c([H])c1[H]


 34 37  0  0  0  0  0  0  0  0999 V2000
   50.7982   -2.8245   -8.1906 N   0  0  0  0  0  0  0  0  0  0  0  0
   50.1488   -2.4569   -8.8975 H   0  0  0  0  0  0  0  0  0  0  0  0
   50.6134   -4.5692   -4.9105 C   0  0  0  0  0  0  0  0  0  0  0  0
   51.0461   -4.1855   -6.1699 C   0  0  0  0  0  0  0  0  0  0  0  0
   50.3726   -3.2189   -6.9054 C   0  0  0  0  0  0  0  0  0  0  0  0
   49.2789   -2.6780   -6.3258 N   0  0  0  0  0  0  0  0  0  0  0  0
   48.8275   -3.0226   -5.1081 C   0  0  0  0  0  0  0  0  0  0  0  0
   47.6535   -2.4067   -4.5445 N   0  0  0  0  0  0  0  0  0  0  0  0
   49.5179   -3.9605   -4.4458 N   0  0  0  0  0  0  0  0  0  0  0  0
   46.9363   -2.9259   -4.0195 H   0  0  0  0  0  0  0  0  0  0  0  0
   47.4901   -1.3705   -4.6581 H   0  0  0  0  0  0  0  0  0  0  0  0
   51.2511   -5.5145   -4.1592 O   0  0  0  0  0  0  0  0  0  0  0  0
   50.9321   -5.9956   -2.8928 C   0  0  0  0  0  0  0  0  0  0  0  0
   52.0809   -6.0061   -1.9429 C   0  0  0  0  0  0  0  0  0  0  0  0
   54.3642   -5.2975   -2.3189 C   0  0  0  0  0  0  0  0  0  0  0  0
   53.3484   -6.2628   -2.5945 N   0  0  0  0  0  0  0  0  0  0  0  0
   53.7709   -7.6275   -2.5550 C   0  0  0  0  0  0  0  0  0  0  0  0
   52.2059   -2.9556   -8.4899 C   0  0  0  0  0  0  0  0  0  0  0  0
   53.0805   -1.9933   -8.7504 N   0  0  0  0  0  0  0  0  0  0  0  0
   54.3097   -2.2982   -9.0055 C   0  0  0  0  0  0  0  0  0  0  0  0
   54.6544   -3.6260   -8.9936 C   0  0  0  0  0  0  0  0  0  0  0  0
   53.1635   -4.3626   -8.6095 S   0  0  0  0  0  0  0  0  0  0  0  0
   55.9775   -4.2212   -9.2558 C   0  0  0  0  0  0  0  0  0  0  0  0
   56.4777   -4.3227  -10.5099 C   0  0  0  0  0  0  0  0  0  0  0  0
   57.7140   -4.8836  -10.7147 C   0  0  0  0  0  0  0  0  0  0  0  0
   58.5081   -5.3708   -9.6554 C   0  0  0  0  0  0  0  0  0  0  0  0
   57.9800   -5.2577   -8.3927 C   0  0  0  0  0  0  0  0  0  0  0  0
   56.7294   -4.6879   -8.2063 C   0  0  0  0  0  0  0  0  0  0  0  0
   59.7176   -5.9093   -9.9683 O   0  0  0  0  0  0  0  0  0  0  0  0
   60.6983   -6.3648   -9.1101 C   0  0  0  0  0  0  0  0  0  0  0  0
   61.6717   -7.3387   -9.6964 C   0  0  0  0  0  0  0  0  0  0  0  0
   63.0387   -7.2747   -9.0455 C   0  0  0  0  0  0  0  0  0  0  0  0
   63.3399   -6.2256   -9.9396 O   0  0  0  0  0  0  0  0  0  0  0  0
   62.4378   -6.7072  -10.8780 C   0  0  0  0  0  0  0  0  0  0  0  0
 15 16  1  0  0  0
 16 17  1  0  0  0
 16 14  1  0  0  0
 14 13  1  0  0  0
 13 12  1  0  0  0
 12  3  1  0  0  0
  3  4  2  0  0  0
  4  5  1  0  0  0
  5  1  1  0  0  0
  1 18  1  0  0  0
 18 19  2  0  0  0
 19 20  1  0  0  0
 20 21  2  0  0  0
 21 22  1  0  0  0
 21 23  1  0  0  0
 23 24  2  0  0  0
 24 25  1  0  0  0
 25 26  2  0  0  0
 26 29  1  0  0  0
 29 30  1  0  0  0
 30 31  1  0  0  0
 31 32  1  0  0  0
 32 33  1  0  0  0
 33 34  1  0  0  0
 26 27  1  0  0  0
 27 28  2  0  0  0
  5  6  2  0  0  0
  6  7  1  0  0  0
  7  8  1  0  0  0
  7  9  2  0  0  0
  9  3  1  0  0  0
 22 18  1  0  0  0
 28 23  1  0  0  0
 34 31  1  0  0  0
  1  2  1  0  0  0
  8 10  1  0  0  0
  8 11  1  0  0  0
M  END
> <minimizedAffinity>
-8.38610

> <CNNscore>
0.9312394261

> <CNNaffinity>
7.4215941429

> <CNN_VS>
6.9112811089

> <CNNaffinity_variance>
0.0391350761

$$$$
[H]c1nc(N([H])c2nc(N([H])[H])nc(OC([H])([H])C([H])([H])N(C([H])([H])[H])C([H])([H])[H])c2[H])sc1-c1c([H])c([H])c(OC([H])([H])C2([H])C([H])([H])OC2([H])[H])c([H])c1[H]


 34 37  0  0  0  0  0  0  0  0999 V2000
   50.9715   -2.7631   -8.2388 N   0  0  0  0  0  0  0  0  0  0  0  0
   50.3412   -2.3235   -8.9214 H   0  0  0  0  0  0  0  0  0  0  0  0
   50.6441   -4.8120   -5.1514 C   0  0  0  0  0  0  0  0  0  0  0  0
   51.1028   -4.3426   -6.3720 C   0  0  0  0  0  0  0  0  0  0  0  0
   50.5191   -3.2465   -6.9938 C   0  0  0  0  0  0  0  0  0  0  0  0
   49.4855   -2.6683   -6.3442 N   0  0  0  0  0  0  0  0  0  0  0  0
   49.0116   -3.0929   -5.1607 C   0  0  0  0  0  0  0  0  0  0  0  0
   47.9051   -2.4312   -4.5180 N   0  0  0  0  0  0  0  0  0  0  0  0
   49.6145   -4.1546   -4.6090 N   0  0  0  0  0  0  0  0  0  0  0  0
   47.1454   -2.9324   -4.0371 H   0  0  0  0  0  0  0  0  0  0  0  0
   47.8400   -1.3781   -4.5225 H   0  0  0  0  0  0  0  0  0  0  0  0
   51.1943   -5.8853   -4.5111 O   0  0  0  0  0  0  0  0  0  0  0  0
   51.9274   -5.9247   -3.3287 C   0  0  0  0  0  0  0  0  0  0  0  0
   53.2713   -6.5539   -3.4712 C   0  0  0  0  0  0  0  0  0  0  0  0
   55.3014   -5.2664   -3.7513 C   0  0  0  0  0  0  0  0  0  0  0  0
   54.1420   -5.8254   -4.3702 N   0  0  0  0  0  0  0  0  0  0  0  0
   54.3655   -6.4648   -5.6287 C   0  0  0  0  0  0  0  0  0  0  0  0
   52.3792   -2.9078   -8.5321 C   0  0  0  0  0  0  0  0  0  0  0  0
   53.2751   -1.9518   -8.7370 N   0  0  0  0  0  0  0  0  0  0  0  0
   54.5005   -2.2686   -8.9963 C   0  0  0  0  0  0  0  0  0  0  0  0
   54.8187   -3.6021   -9.0472 C   0  0  0  0  0  0  0  0  0  0  0  0
   53.3098   -4.3263   -8.7130 S   0  0  0  0  0  0  0  0  0  0  0  0
   56.1322   -4.2103   -9.3271 C   0  0  0  0  0  0  0  0  0  0  0  0
   56.9028   -4.7279   -8.3414 C   0  0  0  0  0  0  0  0  0  0  0  0
   58.1209   -5.2859   -8.6410 C   0  0  0  0  0  0  0  0  0  0  0  0
   58.6205   -5.3481   -9.9588 C   0  0  0  0  0  0  0  0  0  0  0  0
   57.8219   -4.8164  -10.9416 C   0  0  0  0  0  0  0  0  0  0  0  0
   56.5945   -4.2572  -10.6188 C   0  0  0  0  0  0  0  0  0  0  0  0
   59.8402   -5.9208  -10.1457 O   0  0  0  0  0  0  0  0  0  0  0  0
   60.4867   -6.8372   -9.3407 C   0  0  0  0  0  0  0  0  0  0  0  0
   61.7072   -6.3338   -8.6358 C   0  0  0  0  0  0  0  0  0  0  0  0
   62.9903   -6.6373   -9.3830 C   0  0  0  0  0  0  0  0  0  0  0  0
   62.9789   -7.8991   -8.7518 O   0  0  0  0  0  0  0  0  0  0  0  0
   62.2649   -7.4013   -7.6708 C   0  0  0  0  0  0  0  0  0  0  0  0
 15 16  1  0  0  0
 16 17  1  0  0  0
 16 14  1  0  0  0
 14 13  1  0  0  0
 13 12  1  0  0  0
 12  3  1  0  0  0
  3  4  2  0  0  0
  4  5  1  0  0  0
  5  1  1  0  0  0
  1 18  1  0  0  0
 18 19  2  0  0  0
 19 20  1  0  0  0
 20 21  2  0  0  0
 21 22  1  0  0  0
 21 23  1  0  0  0
 23 24  2  0  0  0
 24 25  1  0  0  0
 25 26  2  0  0  0
 26 29  1  0  0  0
 29 30  1  0  0  0
 30 31  1  0  0  0
 31 32  1  0  0  0
 32 33  1  0  0  0
 33 34  1  0  0  0
 26 27  1  0  0  0
 27 28  2  0  0  0
  5  6  2  0  0  0
  6  7  1  0  0  0
  7  8  1  0  0  0
  7  9  2  0  0  0
  9  3  1  0  0  0
 22 18  1  0  0  0
 28 23  1  0  0  0
 34 31  1  0  0  0
  1  2  1  0  0  0
  8 10  1  0  0  0
  8 11  1  0  0  0
M  END
> <minimizedAffinity>
-8.41393

> <CNNscore>
0.9024186730

> <CNNaffinity>
7.3182106018

> <CNN_VS>
6.6040897369

> <CNNaffinity_variance>
0.1003321409

$$$$
[H]c1nc(N([H])c2nc(N([H])[H])nc(OC([H])([H])C([H])([H])N(C([H])([H])[H])C([H])([H])[H])c2[H])sc1-c1c([H])c([H])c(OC([H])([H])C2([H])C([H])([H])OC2([H])[H])c([H])c1[H]


 34 37  0  0  0  0  0  0  0  0999 V2000
   50.9830   -2.8829   -7.9346 N   0  0  0  0  0  0  0  0  0  0  0  0
   50.4393   -2.2521   -8.5370 H   0  0  0  0  0  0  0  0  0  0  0  0
   50.6616   -4.7809   -4.7516 C   0  0  0  0  0  0  0  0  0  0  0  0
   51.1452   -4.3403   -5.9733 C   0  0  0  0  0  0  0  0  0  0  0  0
   50.5055   -3.3356   -6.6874 C   0  0  0  0  0  0  0  0  0  0  0  0
   49.3921   -2.8162   -6.1259 N   0  0  0  0  0  0  0  0  0  0  0  0
   48.8916   -3.2156   -4.9447 C   0  0  0  0  0  0  0  0  0  0  0  0
   47.6989   -2.6201   -4.3986 N   0  0  0  0  0  0  0  0  0  0  0  0
   49.5513   -4.1883   -4.3015 N   0  0  0  0  0  0  0  0  0  0  0  0
   46.9594   -3.1593   -3.9276 H   0  0  0  0  0  0  0  0  0  0  0  0
   47.5447   -1.5786   -4.4688 H   0  0  0  0  0  0  0  0  0  0  0  0
   51.2651   -5.7649   -4.0220 O   0  0  0  0  0  0  0  0  0  0  0  0
   52.5947   -6.1761   -4.0278 C   0  0  0  0  0  0  0  0  0  0  0  0
   53.0021   -6.9226   -2.8035 C   0  0  0  0  0  0  0  0  0  0  0  0
   53.1464   -5.4846   -0.8622 C   0  0  0  0  0  0  0  0  0  0  0  0
   53.8439   -6.1414   -1.9214 N   0  0  0  0  0  0  0  0  0  0  0  0
   55.0670   -6.7797   -1.5483 C   0  0  0  0  0  0  0  0  0  0  0  0
   52.2888   -3.3431   -8.3489 C   0  0  0  0  0  0  0  0  0  0  0  0
   53.0919   -4.1953   -7.7263 N   0  0  0  0  0  0  0  0  0  0  0  0
   54.2380   -4.4892   -8.2450 C   0  0  0  0  0  0  0  0  0  0  0  0
   54.5724   -3.8943   -9.4351 C   0  0  0  0  0  0  0  0  0  0  0  0
   53.1936   -2.9348   -9.7366 S   0  0  0  0  0  0  0  0  0  0  0  0
   55.8122   -4.0616  -10.2151 C   0  0  0  0  0  0  0  0  0  0  0  0
   55.9251   -3.5986  -11.4825 C   0  0  0  0  0  0  0  0  0  0  0  0
   57.0960   -3.7737  -12.1777 C   0  0  0  0  0  0  0  0  0  0  0  0
   58.2149   -4.4283  -11.6213 C   0  0  0  0  0  0  0  0  0  0  0  0
   58.0769   -4.8898  -10.3352 C   0  0  0  0  0  0  0  0  0  0  0  0
   56.8860   -4.7030   -9.6494 C   0  0  0  0  0  0  0  0  0  0  0  0
   59.3260   -4.5500  -12.3970 O   0  0  0  0  0  0  0  0  0  0  0  0
   59.7791   -3.6947  -13.3814 C   0  0  0  0  0  0  0  0  0  0  0  0
   61.1975   -3.8974  -13.8138 C   0  0  0  0  0  0  0  0  0  0  0  0
   61.9432   -2.5956  -14.0281 C   0  0  0  0  0  0  0  0  0  0  0  0
   61.4039   -2.5805  -15.3318 O   0  0  0  0  0  0  0  0  0  0  0  0
   61.2994   -3.9643  -15.3523 C   0  0  0  0  0  0  0  0  0  0  0  0
 15 16  1  0  0  0
 16 17  1  0  0  0
 16 14  1  0  0  0
 14 13  1  0  0  0
 13 12  1  0  0  0
 12  3  1  0  0  0
  3  4  2  0  0  0
  4  5  1  0  0  0
  5  1  1  0  0  0
  1 18  1  0  0  0
 18 19  2  0  0  0
 19 20  1  0  0  0
 20 21  2  0  0  0
 21 22  1  0  0  0
 21 23  1  0  0  0
 23 24  2  0  0  0
 24 25  1  0  0  0
 25 26  2  0  0  0
 26 29  1  0  0  0
 29 30  1  0  0  0
 30 31  1  0  0  0
 31 32  1  0  0  0
 32 33  1  0  0  0
 33 34  1  0  0  0
 26 27  1  0  0  0
 27 28  2  0  0  0
  5  6  2  0  0  0
  6  7  1  0  0  0
  7  8  1  0  0  0
  7  9  2  0  0  0
  9  3  1  0  0  0
 22 18  1  0  0  0
 28 23  1  0  0  0
 34 31  1  0  0  0
  1  2  1  0  0  0
  8 10  1  0  0  0
  8 11  1  0  0  0
M  END
> <minimizedAffinity>
-7.83969

> <CNNscore>
0.8660843968

> <CNNaffinity>
7.3075647354

> <CNN_VS>
6.3289675713

> <CNNaffinity_variance>
0.0999741852

$$$$
[H]c1nc(N([H])c2nc(N([H])[H])nc(OC([H])([H])C([H])([H])N(C([H])([H])[H])C([H])([H])[H])c2[H])sc1-c1c([H])c([H])c(OC([H])([H])C2([H])C([H])([H])OC2([H])[H])c([H])c1[H]


 34 37  0  0  0  0  0  0  0  0999 V2000
   52.2916   -3.2377   -8.6645 N   0  0  0  0  0  0  0  0  0  0  0  0
   51.8241   -2.7377   -9.4312 H   0  0  0  0  0  0  0  0  0  0  0  0
   51.4379   -4.9172   -5.4571 C   0  0  0  0  0  0  0  0  0  0  0  0
   52.1079   -4.5740   -6.6206 C   0  0  0  0  0  0  0  0  0  0  0  0
   51.6235   -3.5915   -7.4742 C   0  0  0  0  0  0  0  0  0  0  0  0
   50.4691   -2.9936   -7.1069 N   0  0  0  0  0  0  0  0  0  0  0  0
   49.7901   -3.2976   -5.9881 C   0  0  0  0  0  0  0  0  0  0  0  0
   48.5632   -2.6216   -5.6517 N   0  0  0  0  0  0  0  0  0  0  0  0
   50.3058   -4.2535   -5.2036 N   0  0  0  0  0  0  0  0  0  0  0  0
   47.7399   -3.1001   -5.2607 H   0  0  0  0  0  0  0  0  0  0  0  0
   48.4709   -1.5813   -5.8020 H   0  0  0  0  0  0  0  0  0  0  0  0
   51.8854   -5.8767   -4.5946 O   0  0  0  0  0  0  0  0  0  0  0  0
   53.1388   -6.4767   -4.5178 C   0  0  0  0  0  0  0  0  0  0  0  0
   53.5805   -6.7781   -3.1263 C   0  0  0  0  0  0  0  0  0  0  0  0
   55.5992   -5.6786   -2.3691 C   0  0  0  0  0  0  0  0  0  0  0  0
   55.0215   -6.8272   -2.9909 N   0  0  0  0  0  0  0  0  0  0  0  0
   55.5342   -8.0868   -2.5512 C   0  0  0  0  0  0  0  0  0  0  0  0
   53.6842   -3.6076   -8.7757 C   0  0  0  0  0  0  0  0  0  0  0  0
   54.5751   -3.7438   -7.8029 N   0  0  0  0  0  0  0  0  0  0  0  0
   55.7898   -4.0773   -8.0902 C   0  0  0  0  0  0  0  0  0  0  0  0
   56.1020   -4.2775   -9.4110 C   0  0  0  0  0  0  0  0  0  0  0  0
   54.6035   -3.9683  -10.1670 S   0  0  0  0  0  0  0  0  0  0  0  0
   57.4058   -4.6545   -9.9869 C   0  0  0  0  0  0  0  0  0  0  0  0
   58.3000   -5.4025   -9.2981 C   0  0  0  0  0  0  0  0  0  0  0  0
   59.5045   -5.7334   -9.8677 C   0  0  0  0  0  0  0  0  0  0  0  0
   59.8643   -5.3218  -11.1683 C   0  0  0  0  0  0  0  0  0  0  0  0
   58.9421   -4.5637  -11.8472 C   0  0  0  0  0  0  0  0  0  0  0  0
   57.7306   -4.2401  -11.2546 C   0  0  0  0  0  0  0  0  0  0  0  0
   61.0831   -5.7032  -11.6371 O   0  0  0  0  0  0  0  0  0  0  0  0
   61.7645   -5.2222  -12.7372 C   0  0  0  0  0  0  0  0  0  0  0  0
   63.1820   -5.6826  -12.8741 C   0  0  0  0  0  0  0  0  0  0  0  0
   63.4340   -6.4511  -14.1558 C   0  0  0  0  0  0  0  0  0  0  0  0
   62.9821   -7.6011  -13.4746 O   0  0  0  0  0  0  0  0  0  0  0  0
   63.3693   -7.0806  -12.2477 C   0  0  0  0  0  0  0  0  0  0  0  0
 15 16  1  0  0  0
 16 17  1  0  0  0
 16 14  1  0  0  0
 14 13  1  0  0  0
 13 12  1  0  0  0
 12  3  1  0  0  0
  3  4  2  0  0  0
  4  5  1  0  0  0
  5  1  1  0  0  0
  1 18  1  0  0  0
 18 19  2  0  0  0
 19 20  1  0  0  0
 20 21  2  0  0  0
 21 22  1  0  0  0
 21 23  1  0  0  0
 23 24  2  0  0  0
 24 25  1  0  0  0
 25 26  2  0  0  0
 26 29  1  0  0  0
 29 30  1  0  0  0
 30 31  1  0  0  0
 31 32  1  0  0  0
 32 33  1  0  0  0
 33 34  1  0  0  0
 26 27  1  0  0  0
 27 28  2  0  0  0
  5  6  2  0  0  0
  6  7  1  0  0  0
  7  8  1  0  0  0
  7  9  2  0  0  0
  9  3  1  0  0  0
 22 18  1  0  0  0
 28 23  1  0  0  0
 34 31  1  0  0  0
  1  2  1  0  0  0
  8 10  1  0  0  0
  8 11  1  0  0  0
M  END
> <minimizedAffinity>
-5.72577

> <CNNscore>
0.5899788141

> <CNNaffinity>
6.6870017052

> <CNN_VS>
3.9451892376

> <CNNaffinity_variance>
0.2451883852

$$$$
[H]c1nc(N([H])c2nc(N([H])[H])nc(OC([H])([H])C([H])([H])N(C([H])([H])[H])C([H])([H])[H])c2[H])sc1-c1c([H])c([H])c(OC([H])([H])C2([H])C([H])([H])OC2([H])[H])c([H])c1[H]


 34 37  0  0  0  0  0  0  0  0999 V2000
   52.1265   -3.3940   -7.9867 N   0  0  0  0  0  0  0  0  0  0  0  0
   51.7773   -2.8038   -8.7523 H   0  0  0  0  0  0  0  0  0  0  0  0
   50.8190   -5.1292   -4.9673 C   0  0  0  0  0  0  0  0  0  0  0  0
   51.6019   -4.8243   -6.0694 C   0  0  0  0  0  0  0  0  0  0  0  0
   51.3420   -3.7117   -6.8588 C   0  0  0  0  0  0  0  0  0  0  0  0
   50.2889   -2.9490   -6.4925 N   0  0  0  0  0  0  0  0  0  0  0  0
   49.5063   -3.2106   -5.4322 C   0  0  0  0  0  0  0  0  0  0  0  0
   48.3970   -2.3562   -5.0933 N   0  0  0  0  0  0  0  0  0  0  0  0
   49.8054   -4.2974   -4.7080 N   0  0  0  0  0  0  0  0  0  0  0  0
   47.4832   -2.7100   -4.7782 H   0  0  0  0  0  0  0  0  0  0  0  0
   48.4934   -1.3076   -5.1612 H   0  0  0  0  0  0  0  0  0  0  0  0
   51.0460   -6.2133   -4.1686 O   0  0  0  0  0  0  0  0  0  0  0  0
   51.6295   -6.2707   -2.9065 C   0  0  0  0  0  0  0  0  0  0  0  0
   51.2875   -7.5012   -2.1376 C   0  0  0  0  0  0  0  0  0  0  0  0
   51.1623   -8.1882    0.1797 C   0  0  0  0  0  0  0  0  0  0  0  0
   51.9324   -7.5535   -0.8420 N   0  0  0  0  0  0  0  0  0  0  0  0
   53.3154   -7.9119   -0.8810 C   0  0  0  0  0  0  0  0  0  0  0  0
   53.4656   -3.9354   -8.0341 C   0  0  0  0  0  0  0  0  0  0  0  0
   54.1157   -4.5954   -7.0851 N   0  0  0  0  0  0  0  0  0  0  0  0
   55.3221   -5.0036   -7.3019 C   0  0  0  0  0  0  0  0  0  0  0  0
   55.8796   -4.7290   -8.5249 C   0  0  0  0  0  0  0  0  0  0  0  0
   54.6115   -3.8874   -9.2972 S   0  0  0  0  0  0  0  0  0  0  0  0
   57.2282   -5.0807   -9.0057 C   0  0  0  0  0  0  0  0  0  0  0  0
   58.2204   -5.4304   -8.1531 C   0  0  0  0  0  0  0  0  0  0  0  0
   59.4639   -5.7511   -8.6384 C   0  0  0  0  0  0  0  0  0  0  0  0
   59.7653   -5.7340  -10.0165 C   0  0  0  0  0  0  0  0  0  0  0  0
   58.7438   -5.3757  -10.8618 C   0  0  0  0  0  0  0  0  0  0  0  0
   57.4944   -5.0554  -10.3521 C   0  0  0  0  0  0  0  0  0  0  0  0
   61.0299   -6.0675  -10.3909 O   0  0  0  0  0  0  0  0  0  0  0  0
   62.1276   -6.2960   -9.5855 C   0  0  0  0  0  0  0  0  0  0  0  0
   62.4628   -7.7336   -9.3389 C   0  0  0  0  0  0  0  0  0  0  0  0
   63.6706   -8.2034  -10.1247 C   0  0  0  0  0  0  0  0  0  0  0  0
   62.7900   -8.4509  -11.1989 O   0  0  0  0  0  0  0  0  0  0  0  0
   61.7219   -8.6500  -10.3354 C   0  0  0  0  0  0  0  0  0  0  0  0
 15 16  1  0  0  0
 16 17  1  0  0  0
 16 14  1  0  0  0
 14 13  1  0  0  0
 13 12  1  0  0  0
 12  3  1  0  0  0
  3  4  2  0  0  0
  4  5  1  0  0  0
  5  1  1  0  0  0
  1 18  1  0  0  0
 18 19  2  0  0  0
 19 20  1  0  0  0
 20 21  2  0  0  0
 21 22  1  0  0  0
 21 23  1  0  0  0
 23 24  2  0  0  0
 24 25  1  0  0  0
 25 26  2  0  0  0
 26 29  1  0  0  0
 29 30  1  0  0  0
 30 31  1  0  0  0
 31 32  1  0  0  0
 32 33  1  0  0  0
 33 34  1  0  0  0
 26 27  1  0  0  0
 27 28  2  0  0  0
  5  6  2  0  0  0
  6  7  1  0  0  0
  7  8  1  0  0  0
  7  9  2  0  0  0
  9  3  1  0  0  0
 22 18  1  0  0  0
 28 23  1  0  0  0
 34 31  1  0  0  0
  1  2  1  0  0  0
  8 10  1  0  0  0
  8 11  1  0  0  0
M  END
> <minimizedAffinity>
-7.01261

> <CNNscore>
0.4671072364

> <CNNaffinity>
6.6098022461

> <CNN_VS>
3.0874865055

> <CNNaffinity_variance>
0.1174240857

$$$$
[H]c1nc(N([H])c2nc(N([H])[H])nc(OC([H])([H])C([H])([H])N(C([H])([H])[H])C([H])([H])[H])c2[H])sc1-c1c([H])c([H])c(OC([H])([H])C2([H])C([H])([H])OC2([H])[H])c([H])c1[H]


 34 37  0  0  0  0  0  0  0  0999 V2000
   54.5342   -3.5495  -10.4373 N   0  0  0  0  0  0  0  0  0  0  0  0
   54.1820   -3.0601  -11.2697 H   0  0  0  0  0  0  0  0  0  0  0  0
   58.0010   -4.5379  -11.3549 C   0  0  0  0  0  0  0  0  0  0  0  0
   56.7188   -4.0189  -11.4395 C   0  0  0  0  0  0  0  0  0  0  0  0
   55.8436   -4.0675  -10.3623 C   0  0  0  0  0  0  0  0  0  0  0  0
   56.3115   -4.6461   -9.2349 N   0  0  0  0  0  0  0  0  0  0  0  0
   57.5468   -5.1605   -9.1129 C   0  0  0  0  0  0  0  0  0  0  0  0
   57.9866   -5.7643   -7.8811 N   0  0  0  0  0  0  0  0  0  0  0  0
   58.3464   -5.0849  -10.1853 N   0  0  0  0  0  0  0  0  0  0  0  0
   58.5480   -6.6261   -7.8398 H   0  0  0  0  0  0  0  0  0  0  0  0
   57.7367   -5.3251   -6.9548 H   0  0  0  0  0  0  0  0  0  0  0  0
   58.8879   -4.5063  -12.3928 O   0  0  0  0  0  0  0  0  0  0  0  0
   59.3697   -3.4131  -13.1066 C   0  0  0  0  0  0  0  0  0  0  0  0
   60.3900   -3.7646  -14.1351 C   0  0  0  0  0  0  0  0  0  0  0  0
   58.5442   -3.1791  -15.5868 C   0  0  0  0  0  0  0  0  0  0  0  0
   59.8839   -3.6640  -15.4882 N   0  0  0  0  0  0  0  0  0  0  0  0
   60.8078   -3.1117  -16.4284 C   0  0  0  0  0  0  0  0  0  0  0  0
   53.6843   -3.7317   -9.2828 C   0  0  0  0  0  0  0  0  0  0  0  0
   52.6082   -3.0362   -8.9406 N   0  0  0  0  0  0  0  0  0  0  0  0
   51.9688   -3.3380   -7.8593 C   0  0  0  0  0  0  0  0  0  0  0  0
   52.4439   -4.3817   -7.1063 C   0  0  0  0  0  0  0  0  0  0  0  0
   53.8020   -4.8700   -8.0173 S   0  0  0  0  0  0  0  0  0  0  0  0
   51.8985   -4.9090   -5.8421 C   0  0  0  0  0  0  0  0  0  0  0  0
   50.6340   -4.6358   -5.4422 C   0  0  0  0  0  0  0  0  0  0  0  0
   50.1613   -5.1448   -4.2580 C   0  0  0  0  0  0  0  0  0  0  0  0
   50.9487   -5.9591   -3.4172 C   0  0  0  0  0  0  0  0  0  0  0  0
   52.2277   -6.2221   -3.8430 C   0  0  0  0  0  0  0  0  0  0  0  0
   52.6867   -5.6988   -5.0425 C   0  0  0  0  0  0  0  0  0  0  0  0
   50.3837   -6.4100   -2.2647 O   0  0  0  0  0  0  0  0  0  0  0  0
   50.9863   -7.0935   -1.2276 C   0  0  0  0  0  0  0  0  0  0  0  0
   50.3251   -8.3742   -0.8244 C   0  0  0  0  0  0  0  0  0  0  0  0
   49.7954   -8.3460    0.5952 C   0  0  0  0  0  0  0  0  0  0  0  0
   51.0893   -8.7230    1.0129 O   0  0  0  0  0  0  0  0  0  0  0  0
   51.3466   -9.3478   -0.1995 C   0  0  0  0  0  0  0  0  0  0  0  0
 15 16  1  0  0  0
 16 17  1  0  0  0
 16 14  1  0  0  0
 14 13  1  0  0  0
 13 12  1  0  0  0
 12  3  1  0  0  0
  3  4  2  0  0  0
  4  5  1  0  0  0
  5  1  1  0  0  0
  1 18  1  0  0  0
 18 19  2  0  0  0
 19 20  1  0  0  0
 20 21  2  0  0  0
 21 22  1  0  0  0
 21 23  1  0  0  0
 23 24  2  0  0  0
 24 25  1  0  0  0
 25 26  2  0  0  0
 26 29  1  0  0  0
 29 30  1  0  0  0
 30 31  1  0  0  0
 31 32  1  0  0  0
 32 33  1  0  0  0
 33 34  1  0  0  0
 26 27  1  0  0  0
 27 28  2  0  0  0
  5  6  2  0  0  0
  6  7  1  0  0  0
  7  8  1  0  0  0
  7  9  2  0  0  0
  9  3  1  0  0  0
 22 18  1  0  0  0
 28 23  1  0  0  0
 34 31  1  0  0  0
  1  2  1  0  0  0
  8 10  1  0  0  0
  8 11  1  0  0  0
M  END
> <minimizedAffinity>
-8.17742

> <CNNscore>
0.4102038145

> <CNNaffinity>
6.5260353088

> <CNN_VS>
2.6770045757

> <CNNaffinity_variance>
0.0797469169

$$$$
[H]c1nc(N([H])c2nc(N([H])[H])nc(OC([H])([H])C([H])([H])N(C([H])([H])[H])C([H])([H])[H])c2[H])sc1-c1c([H])c([H])c(OC([H])([H])C2([H])C([H])([H])OC2([H])[H])c([H])c1[H]


 34 37  0  0  0  0  0  0  0  0999 V2000
   57.0911   -5.0080   -6.3963 N   0  0  0  0  0  0  0  0  0  0  0  0
   57.6855   -4.4708   -5.7525 H   0  0  0  0  0  0  0  0  0  0  0  0
   53.6674   -6.4102   -6.0100 C   0  0  0  0  0  0  0  0  0  0  0  0
   54.7258   -5.6389   -6.4631 C   0  0  0  0  0  0  0  0  0  0  0  0
   56.0070   -5.7910   -5.9491 C   0  0  0  0  0  0  0  0  0  0  0  0
   56.1606   -6.7283   -4.9885 N   0  0  0  0  0  0  0  0  0  0  0  0
   55.1608   -7.4955   -4.5226 C   0  0  0  0  0  0  0  0  0  0  0  0
   55.3903   -8.4797   -3.4959 N   0  0  0  0  0  0  0  0  0  0  0  0
   53.9469   -7.3038   -5.0561 N   0  0  0  0  0  0  0  0  0  0  0  0
   54.7410   -8.6477   -2.7150 H   0  0  0  0  0  0  0  0  0  0  0  0
   56.2604   -9.0762   -3.5162 H   0  0  0  0  0  0  0  0  0  0  0  0
   52.3959   -6.2886   -6.4931 O   0  0  0  0  0  0  0  0  0  0  0  0
   51.8696   -5.3328   -7.3569 C   0  0  0  0  0  0  0  0  0  0  0  0
   51.1678   -4.2140   -6.6655 C   0  0  0  0  0  0  0  0  0  0  0  0
   49.9021   -2.1786   -7.0004 C   0  0  0  0  0  0  0  0  0  0  0  0
   50.7892   -3.1446   -7.5655 N   0  0  0  0  0  0  0  0  0  0  0  0
   51.8654   -2.6112   -8.3401 C   0  0  0  0  0  0  0  0  0  0  0  0
   57.3463   -4.9834   -7.8185 C   0  0  0  0  0  0  0  0  0  0  0  0
   58.2703   -5.6512   -8.4960 N   0  0  0  0  0  0  0  0  0  0  0  0
   58.3589   -5.5001   -9.7760 C   0  0  0  0  0  0  0  0  0  0  0  0
   57.4766   -4.6410  -10.3806 C   0  0  0  0  0  0  0  0  0  0  0  0
   56.5610   -4.0972   -9.0469 S   0  0  0  0  0  0  0  0  0  0  0  0
   57.3810   -4.2990  -11.8115 C   0  0  0  0  0  0  0  0  0  0  0  0
   58.4658   -3.9206  -12.5281 C   0  0  0  0  0  0  0  0  0  0  0  0
   58.3374   -3.6093  -13.8590 C   0  0  0  0  0  0  0  0  0  0  0  0
   57.0993   -3.6665  -14.5328 C   0  0  0  0  0  0  0  0  0  0  0  0
   56.0133   -4.0522  -13.7857 C   0  0  0  0  0  0  0  0  0  0  0  0
   56.1636   -4.3628  -12.4425 C   0  0  0  0  0  0  0  0  0  0  0  0
   57.0823   -3.3360  -15.8524 O   0  0  0  0  0  0  0  0  0  0  0  0
   55.9926   -3.2329  -16.6938 C   0  0  0  0  0  0  0  0  0  0  0  0
   56.3072   -3.1463  -18.1544 C   0  0  0  0  0  0  0  0  0  0  0  0
   56.8490   -1.7916  -18.5643 C   0  0  0  0  0  0  0  0  0  0  0  0
   55.5085   -1.3691  -18.6881 O   0  0  0  0  0  0  0  0  0  0  0  0
   55.0793   -2.6620  -18.9539 C   0  0  0  0  0  0  0  0  0  0  0  0
 15 16  1  0  0  0
 16 17  1  0  0  0
 16 14  1  0  0  0
 14 13  1  0  0  0
 13 12  1  0  0  0
 12  3  1  0  0  0
  3  4  2  0  0  0
  4  5  1  0  0  0
  5  1  1  0  0  0
  1 18  1  0  0  0
 18 19  2  0  0  0
 19 20  1  0  0  0
 20 21  2  0  0  0
 21 22  1  0  0  0
 21 23  1  0  0  0
 23 24  2  0  0  0
 24 25  1  0  0  0
 25 26  2  0  0  0
 26 29  1  0  0  0
 29 30  1  0  0  0
 30 31  1  0  0  0
 31 32  1  0  0  0
 32 33  1  0  0  0
 33 34  1  0  0  0
 26 27  1  0  0  0
 27 28  2  0  0  0
  5  6  2  0  0  0
  6  7  1  0  0  0
  7  8  1  0  0  0
  7  9  2  0  0  0
  9  3  1  0  0  0
 22 18  1  0  0  0
 28 23  1  0  0  0
 34 31  1  0  0  0
  1  2  1  0  0  0
  8 10  1  0  0  0
  8 11  1  0  0  0
M  END
> <minimizedAffinity>
-6.29874

> <CNNscore>
0.3367227912

> <CNNaffinity>
6.1132831573

> <CNN_VS>
2.0584816933

> <CNNaffinity_variance>
0.5814830661

$$$$
[H]c1nc(N([H])c2nc(N([H])[H])nc(OC([H])([H])C([H])([H])N(C([H])([H])[H])C([H])([H])[H])c2[H])sc1-c1c([H])c([H])c(OC([H])([H])C2([H])C([H])([H])OC2([H])[H])c([H])c1[H]


 34 37  0  0  0  0  0  0  0  0999 V2000
   54.8496   -3.4652   -9.8232 N   0  0  0  0  0  0  0  0  0  0  0  0
   54.4096   -2.6218  -10.2124 H   0  0  0  0  0  0  0  0  0  0  0  0
   57.5226   -4.4452  -12.2174 C   0  0  0  0  0  0  0  0  0  0  0  0
   56.3611   -3.8921  -11.7021 C   0  0  0  0  0  0  0  0  0  0  0  0
   56.0316   -4.0171  -10.3588 C   0  0  0  0  0  0  0  0  0  0  0  0
   56.9031   -4.7043   -9.5887 N   0  0  0  0  0  0  0  0  0  0  0  0
   58.0386   -5.2551  -10.0498 C   0  0  0  0  0  0  0  0  0  0  0  0
   58.9280   -5.9761   -9.1756 N   0  0  0  0  0  0  0  0  0  0  0  0
   58.3037   -5.1020  -11.3541 N   0  0  0  0  0  0  0  0  0  0  0  0
   59.4013   -6.8504   -9.4423 H   0  0  0  0  0  0  0  0  0  0  0  0
   59.1260   -5.6158   -8.2038 H   0  0  0  0  0  0  0  0  0  0  0  0
   57.8786   -4.3410  -13.5316 O   0  0  0  0  0  0  0  0  0  0  0  0
   57.3984   -3.4734  -14.5081 C   0  0  0  0  0  0  0  0  0  0  0  0
   56.4735   -4.1152  -15.4852 C   0  0  0  0  0  0  0  0  0  0  0  0
   57.3189   -4.6652  -17.6853 C   0  0  0  0  0  0  0  0  0  0  0  0
   56.7060   -3.6839  -16.8480 N   0  0  0  0  0  0  0  0  0  0  0  0
   55.6198   -2.9658  -17.4371 C   0  0  0  0  0  0  0  0  0  0  0  0
   54.2631   -4.1365   -8.6857 C   0  0  0  0  0  0  0  0  0  0  0  0
   52.9936   -4.4706   -8.4976 N   0  0  0  0  0  0  0  0  0  0  0  0
   52.6441   -5.0662   -7.4057 C   0  0  0  0  0  0  0  0  0  0  0  0
   53.6217   -5.3278   -6.4794 C   0  0  0  0  0  0  0  0  0  0  0  0
   55.0036   -4.6899   -7.2517 S   0  0  0  0  0  0  0  0  0  0  0  0
   53.4750   -5.9850   -5.1679 C   0  0  0  0  0  0  0  0  0  0  0  0
   52.3921   -5.7751   -4.3825 C   0  0  0  0  0  0  0  0  0  0  0  0
   52.2910   -6.4049   -3.1667 C   0  0  0  0  0  0  0  0  0  0  0  0
   53.2851   -7.2821   -2.6846 C   0  0  0  0  0  0  0  0  0  0  0  0
   54.3741   -7.4790   -3.4979 C   0  0  0  0  0  0  0  0  0  0  0  0
   54.4577   -6.8337   -4.7227 C   0  0  0  0  0  0  0  0  0  0  0  0
   53.0869   -7.8527   -1.4657 O   0  0  0  0  0  0  0  0  0  0  0  0
   53.9893   -7.9920   -0.4302 C   0  0  0  0  0  0  0  0  0  0  0  0
   54.7191   -6.7468   -0.0344 C   0  0  0  0  0  0  0  0  0  0  0  0
   54.8675   -6.5989    1.4666 C   0  0  0  0  0  0  0  0  0  0  0  0
   53.5848   -6.0112    1.4668 O   0  0  0  0  0  0  0  0  0  0  0  0
   53.7375   -5.5717    0.1592 C   0  0  0  0  0  0  0  0  0  0  0  0
 15 16  1  0  0  0
 16 17  1  0  0  0
 16 14  1  0  0  0
 14 13  1  0  0  0
 13 12  1  0  0  0
 12  3  1  0  0  0
  3  4  2  0  0  0
  4  5  1  0  0  0
  5  1  1  0  0  0
  1 18  1  0  0  0
 18 19  2  0  0  0
 19 20  1  0  0  0
 20 21  2  0  0  0
 21 22  1  0  0  0
 21 23  1  0  0  0
 23 24  2  0  0  0
 24 25  1  0  0  0
 25 26  2  0  0  0
 26 29  1  0  0  0
 29 30  1  0  0  0
 30 31  1  0  0  0
 31 32  1  0  0  0
 32 33  1  0  0  0
 33 34  1  0  0  0
 26 27  1  0  0  0
 27 28  2  0  0  0
  5  6  2  0  0  0
  6  7  1  0  0  0
  7  8  1  0  0  0
  7  9  2  0  0  0
  9  3  1  0  0  0
 22 18  1  0  0  0
 28 23  1  0  0  0
 34 31  1  0  0  0
  1  2  1  0  0  0
  8 10  1  0  0  0
  8 11  1  0  0  0
M  END
> <minimizedAffinity>
-7.53217

> <CNNscore>
0.3123034537

> <CNNaffinity>
6.4322290421

> <CNN_VS>
2.0088074207

> <CNNaffinity_variance>
0.0981495231

$$$$
[H]c1nc(N([H])c2nc(N([H])[H])nc(OC([H])([H])C([H])([H])N(C([H])([H])[H])C([H])([H])[H])c2[H])sc1-c1c([H])c([H])c(OC([H])([H])C2([H])C([H])([H])OC2([H])[H])c([H])c1[H]


 34 37  0  0  0  0  0  0  0  0999 V2000
   57.2359   -5.7626   -6.6389 N   0  0  0  0  0  0  0  0  0  0  0  0
   58.1697   -5.7628   -6.2095 H   0  0  0  0  0  0  0  0  0  0  0  0
   53.7027   -6.4376   -5.6911 C   0  0  0  0  0  0  0  0  0  0  0  0
   54.8096   -5.9272   -6.3505 C   0  0  0  0  0  0  0  0  0  0  0  0
   56.1011   -6.2800   -5.9810 C   0  0  0  0  0  0  0  0  0  0  0  0
   56.2149   -7.1437   -4.9486 N   0  0  0  0  0  0  0  0  0  0  0  0
   55.1676   -7.6604   -4.2841 C   0  0  0  0  0  0  0  0  0  0  0  0
   55.3560   -8.5790   -3.1905 N   0  0  0  0  0  0  0  0  0  0  0  0
   53.9461   -7.2836   -4.6853 N   0  0  0  0  0  0  0  0  0  0  0  0
   54.8020   -8.5509   -2.3234 H   0  0  0  0  0  0  0  0  0  0  0  0
   56.0927   -9.3321   -3.2496 H   0  0  0  0  0  0  0  0  0  0  0  0
   52.4196   -6.1140   -6.0279 O   0  0  0  0  0  0  0  0  0  0  0  0
   51.9488   -5.4206   -7.1390 C   0  0  0  0  0  0  0  0  0  0  0  0
   51.6189   -3.9928   -6.8655 C   0  0  0  0  0  0  0  0  0  0  0  0
   49.9309   -4.0129   -5.1314 C   0  0  0  0  0  0  0  0  0  0  0  0
   50.2292   -3.7936   -6.5108 N   0  0  0  0  0  0  0  0  0  0  0  0
   49.6278   -2.6350   -7.0926 C   0  0  0  0  0  0  0  0  0  0  0  0
   57.0415   -5.2204   -7.9643 C   0  0  0  0  0  0  0  0  0  0  0  0
   56.0232   -4.4982   -8.4120 N   0  0  0  0  0  0  0  0  0  0  0  0
   56.0130   -4.1002   -9.6411 C   0  0  0  0  0  0  0  0  0  0  0  0
   57.0753   -4.4509  -10.4351 C   0  0  0  0  0  0  0  0  0  0  0  0
   58.0365   -5.3451   -9.3446 S   0  0  0  0  0  0  0  0  0  0  0  0
   57.2901   -4.1257  -11.8570 C   0  0  0  0  0  0  0  0  0  0  0  0
   56.2581   -4.0124  -12.7263 C   0  0  0  0  0  0  0  0  0  0  0  0
   56.4976   -3.7086  -14.0435 C   0  0  0  0  0  0  0  0  0  0  0  0
   57.7991   -3.5032  -14.5475 C   0  0  0  0  0  0  0  0  0  0  0  0
   58.8298   -3.6240  -13.6478 C   0  0  0  0  0  0  0  0  0  0  0  0
   58.5673   -3.9313  -12.3211 C   0  0  0  0  0  0  0  0  0  0  0  0
   57.9255   -3.2084  -15.8695 O   0  0  0  0  0  0  0  0  0  0  0  0
   58.8140   -2.3392  -16.4704 C   0  0  0  0  0  0  0  0  0  0  0  0
   58.6753   -2.1928  -17.9534 C   0  0  0  0  0  0  0  0  0  0  0  0
   58.2382   -3.4729  -18.6366 C   0  0  0  0  0  0  0  0  0  0  0  0
   59.5994   -3.8432  -18.6628 O   0  0  0  0  0  0  0  0  0  0  0  0
   60.0060   -2.5162  -18.6650 C   0  0  0  0  0  0  0  0  0  0  0  0
 15 16  1  0  0  0
 16 17  1  0  0  0
 16 14  1  0  0  0
 14 13  1  0  0  0
 13 12  1  0  0  0
 12  3  1  0  0  0
  3  4  2  0  0  0
  4  5  1  0  0  0
  5  1  1  0  0  0
  1 18  1  0  0  0
 18 19  2  0  0  0
 19 20  1  0  0  0
 20 21  2  0  0  0
 21 22  1  0  0  0
 21 23  1  0  0  0
 23 24  2  0  0  0
 24 25  1  0  0  0
 25 26  2  0  0  0
 26 29  1  0  0  0
 29 30  1  0  0  0
 30 31  1  0  0  0
 31 32  1  0  0  0
 32 33  1  0  0  0
 33 34  1  0  0  0
 26 27  1  0  0  0
 27 28  2  0  0  0
  5  6  2  0  0  0
  6  7  1  0  0  0
  7  8  1  0  0  0
  7  9  2  0  0  0
  9  3  1  0  0  0
 22 18  1  0  0  0
 28 23  1  0  0  0
 34 31  1  0  0  0
  1  2  1  0  0  0
  8 10  1  0  0  0
  8 11  1  0  0  0
M  END
> <minimizedAffinity>
-6.97442

> <CNNscore>
0.3059668243

> <CNNaffinity>
5.9437189102

> <CNN_VS>
1.8185807467

> <CNNaffinity_variance>
0.4248223305

$$$$
[H]c1nc(-c2c([H])c([H])c([H])c(C#N)c2[H])nc2c1N([H])C(=O)[C@@]([H])(C([H])([H])C([H])([H])[H])N2C1([H])C([H])([H])C([H])([H])C([H])([H])C1([H])[H]


 27 30  0  0  0  0  0  0  0  0999 V2000
   50.5842   -5.2228   -6.0289 C   0  0  0  0  0  0  0  0  0  0  0  0
   51.9979   -5.2168   -6.2392 N   0  0  0  0  0  0  0  0  0  0  0  0
   52.4994   -4.3788   -7.2889 C   0  0  0  0  0  0  0  0  0  0  0  0
   53.6541   -4.6780   -7.9382 N   0  0  0  0  0  0  0  0  0  0  0  0
   54.1140   -3.8844   -8.9206 C   0  0  0  0  0  0  0  0  0  0  0  0
   53.4091   -2.7765   -9.2581 N   0  0  0  0  0  0  0  0  0  0  0  0
   52.2639   -2.4238   -8.6586 C   0  0  0  0  0  0  0  0  0  0  0  0
   51.8053   -3.2447   -7.6555 C   0  0  0  0  0  0  0  0  0  0  0  0
   50.5985   -2.9352   -6.9745 N   0  0  0  0  0  0  0  0  0  0  0  0
   50.1400   -3.8074   -5.9308 C   0  0  0  0  0  0  0  0  0  0  0  0
   49.4079   -3.3744   -5.0015 O   0  0  0  0  0  0  0  0  0  0  0  0
   50.0427   -2.0810   -7.2247 H   0  0  0  0  0  0  0  0  0  0  0  0
   55.3560   -4.1767   -9.6424 C   0  0  0  0  0  0  0  0  0  0  0  0
   55.4623   -3.9802  -11.0011 C   0  0  0  0  0  0  0  0  0  0  0  0
   56.6496   -4.2608  -11.6840 C   0  0  0  0  0  0  0  0  0  0  0  0
   57.7491   -4.7426  -11.0172 C   0  0  0  0  0  0  0  0  0  0  0  0
   57.6484   -4.9411   -9.6580 C   0  0  0  0  0  0  0  0  0  0  0  0
   56.4620   -4.6600   -8.9796 C   0  0  0  0  0  0  0  0  0  0  0  0
   58.8021   -5.4434   -8.9766 C   0  0  0  0  0  0  0  0  0  0  0  0
   59.7415   -5.8364   -8.4266 N   0  0  0  0  0  0  0  0  0  0  0  0
   52.9494   -5.9849   -5.4805 C   0  0  0  0  0  0  0  0  0  0  0  0
   52.4449   -6.2485   -4.0583 C   0  0  0  0  0  0  0  0  0  0  0  0
   53.7452   -6.5729   -3.3518 C   0  0  0  0  0  0  0  0  0  0  0  0
   54.6552   -5.4730   -3.8463 C   0  0  0  0  0  0  0  0  0  0  0  0
   54.2698   -5.3294   -5.2988 C   0  0  0  0  0  0  0  0  0  0  0  0
   50.3077   -7.2555   -7.4649 C   0  0  0  0  0  0  0  0  0  0  0  0
   49.8955   -5.8165   -7.2643 C   0  0  0  0  0  0  0  0  0  0  0  0
 26 27  1  0  0  0
 27  1  1  0  0  0
  1  2  1  0  0  0
  2 21  1  0  0  0
 21 22  1  0  0  0
 22 23  1  0  0  0
 23 24  1  0  0  0
 24 25  1  0  0  0
  2  3  1  0  0  0
  3  4  2  0  0  0
  4  5  1  0  0  0
  5  6  2  0  0  0
  6  7  1  0  0  0
  7  8  2  0  0  0
  8  9  1  0  0  0
  9 10  1  0  0  0
 10 11  2  0  0  0
  5 13  1  0  0  0
 13 14  2  0  0  0
 14 15  1  0  0  0
 15 16  2  0  0  0
 16 17  1  0  0  0
 17 18  2  0  0  0
 17 19  1  0  0  0
 19 20  3  0  0  0
 10  1  1  0  0  0
 18 13  1  0  0  0
 25 21  1  0  0  0
  8  3  1  0  0  0
  9 12  1  0  0  0
M  END
> <minimizedAffinity>
-10.30215

> <CNNscore>
0.8060127497

> <CNNaffinity>
7.4846754074

> <CNN_VS>
6.0327439308

> <CNNaffinity_variance>
0.1145851836

$$$$
[H]c1nc(-c2c([H])c([H])c([H])c(C#N)c2[H])nc2c1N([H])C(=O)[C@@]([H])(C([H])([H])C([H])([H])[H])N2C1([H])C([H])([H])C([H])([H])C([H])([H])C1([H])[H]


 27 30  0  0  0  0  0  0  0  0999 V2000
   50.5626   -5.2185   -6.0853 C   0  0  0  0  0  0  0  0  0  0  0  0
   51.9866   -5.2396   -6.2071 N   0  0  0  0  0  0  0  0  0  0  0  0
   52.5668   -4.4313   -7.2393 C   0  0  0  0  0  0  0  0  0  0  0  0
   53.7543   -4.7620   -7.8093 N   0  0  0  0  0  0  0  0  0  0  0  0
   54.2880   -3.9961   -8.7762 C   0  0  0  0  0  0  0  0  0  0  0  0
   53.6247   -2.8840   -9.1783 N   0  0  0  0  0  0  0  0  0  0  0  0
   52.4508   -2.5008   -8.6583 C   0  0  0  0  0  0  0  0  0  0  0  0
   51.9166   -3.2937   -7.6702 C   0  0  0  0  0  0  0  0  0  0  0  0
   50.6754   -2.9511   -7.0719 N   0  0  0  0  0  0  0  0  0  0  0  0
   50.1379   -3.7945   -6.0423 C   0  0  0  0  0  0  0  0  0  0  0  0
   49.3571   -3.3310   -5.1691 O   0  0  0  0  0  0  0  0  0  0  0  0
   50.1511   -2.0933   -7.3727 H   0  0  0  0  0  0  0  0  0  0  0  0
   55.5671   -4.3229   -9.4133 C   0  0  0  0  0  0  0  0  0  0  0  0
   56.6169   -4.8472   -8.6928 C   0  0  0  0  0  0  0  0  0  0  0  0
   57.8347   -5.1570   -9.3061 C   0  0  0  0  0  0  0  0  0  0  0  0
   58.0204   -4.9463  -10.6502 C   0  0  0  0  0  0  0  0  0  0  0  0
   56.9737   -4.4219  -11.3758 C   0  0  0  0  0  0  0  0  0  0  0  0
   55.7598   -4.1140  -10.7607 C   0  0  0  0  0  0  0  0  0  0  0  0
   57.1818   -4.2080  -12.7752 C   0  0  0  0  0  0  0  0  0  0  0  0
   57.3518   -4.0495  -13.9090 N   0  0  0  0  0  0  0  0  0  0  0  0
   52.8757   -6.0074   -5.3758 C   0  0  0  0  0  0  0  0  0  0  0  0
   52.2812   -6.2304   -3.9817 C   0  0  0  0  0  0  0  0  0  0  0  0
   53.5300   -6.5620   -3.1907 C   0  0  0  0  0  0  0  0  0  0  0  0
   54.4890   -5.4897   -3.6519 C   0  0  0  0  0  0  0  0  0  0  0  0
   54.1949   -5.3716   -5.1279 C   0  0  0  0  0  0  0  0  0  0  0  0
   50.3677   -7.2655   -7.5144 C   0  0  0  0  0  0  0  0  0  0  0  0
   49.9418   -5.8259   -7.3497 C   0  0  0  0  0  0  0  0  0  0  0  0
 26 27  1  0  0  0
 27  1  1  0  0  0
  1  2  1  0  0  0
  2 21  1  0  0  0
 21 22  1  0  0  0
 22 23  1  0  0  0
 23 24  1  0  0  0
 24 25  1  0  0  0
  2  3  1  0  0  0
  3  4  2  0  0  0
  4  5  1  0  0  0
  5  6  2  0  0  0
  6  7  1  0  0  0
  7  8  2  0  0  0
  8  9  1  0  0  0
  9 10  1  0  0  0
 10 11  2  0  0  0
  5 13  1  0  0  0
 13 14  2  0  0  0
 14 15  1  0  0  0
 15 16  2  0  0  0
 16 17  1  0  0  0
 17 18  2  0  0  0
 17 19  1  0  0  0
 19 20  3  0  0  0
 10  1  1  0  0  0
 18 13  1  0  0  0
 25 21  1  0  0  0
  8  3  1  0  0  0
  9 12  1  0  0  0
M  END
> <minimizedAffinity>
-10.31071

> <CNNscore>
0.7818719745

> <CNNaffinity>
7.4700384140

> <CNN_VS>
5.8406138420

> <CNNaffinity_variance>
0.1589809209

$$$$
[H]c1nc(-c2c([H])c([H])c([H])c(C#N)c2[H])nc2c1N([H])C(=O)[C@@]([H])(C([H])([H])C([H])([H])[H])N2C1([H])C([H])([H])C([H])([H])C([H])([H])C1([H])[H]


 27 30  0  0  0  0  0  0  0  0999 V2000
   52.4888   -5.2683   -6.5024 C   0  0  0  0  0  0  0  0  0  0  0  0
   53.8830   -5.0457   -6.7249 N   0  0  0  0  0  0  0  0  0  0  0  0
   54.2680   -4.5440   -8.0116 C   0  0  0  0  0  0  0  0  0  0  0  0
   55.4945   -4.8071   -8.5322 N   0  0  0  0  0  0  0  0  0  0  0  0
   55.8437   -4.3311   -9.7396 C   0  0  0  0  0  0  0  0  0  0  0  0
   54.9537   -3.5816  -10.4357 N   0  0  0  0  0  0  0  0  0  0  0  0
   53.7289   -3.2850   -9.9808 C   0  0  0  0  0  0  0  0  0  0  0  0
   53.3851   -3.7785   -8.7445 C   0  0  0  0  0  0  0  0  0  0  0  0
   52.1038   -3.5056   -8.1970 N   0  0  0  0  0  0  0  0  0  0  0  0
   51.7681   -4.0318   -6.9045 C   0  0  0  0  0  0  0  0  0  0  0  0
   50.9124   -3.4615   -6.1767 O   0  0  0  0  0  0  0  0  0  0  0  0
   51.4050   -2.9268   -8.7242 H   0  0  0  0  0  0  0  0  0  0  0  0
   57.1584   -4.5952  -10.3318 C   0  0  0  0  0  0  0  0  0  0  0  0
   58.1076   -5.3437   -9.6724 C   0  0  0  0  0  0  0  0  0  0  0  0
   59.3599   -5.5923  -10.2425 C   0  0  0  0  0  0  0  0  0  0  0  0
   59.6813   -5.0953  -11.4815 C   0  0  0  0  0  0  0  0  0  0  0  0
   58.7356   -4.3459  -12.1456 C   0  0  0  0  0  0  0  0  0  0  0  0
   57.4869   -4.0997  -11.5739 C   0  0  0  0  0  0  0  0  0  0  0  0
   59.0846   -3.8348  -13.4358 C   0  0  0  0  0  0  0  0  0  0  0  0
   59.3649   -3.4347  -14.4850 N   0  0  0  0  0  0  0  0  0  0  0  0
   54.9227   -5.2865   -5.7594 C   0  0  0  0  0  0  0  0  0  0  0  0
   55.7558   -6.5164   -6.1332 C   0  0  0  0  0  0  0  0  0  0  0  0
   56.3800   -6.8535   -4.7945 C   0  0  0  0  0  0  0  0  0  0  0  0
   55.1953   -6.7587   -3.8619 C   0  0  0  0  0  0  0  0  0  0  0  0
   54.4375   -5.5615   -4.3829 C   0  0  0  0  0  0  0  0  0  0  0  0
   50.6062   -6.8209   -7.0642 C   0  0  0  0  0  0  0  0  0  0  0  0
   52.0036   -6.3849   -7.4356 C   0  0  0  0  0  0  0  0  0  0  0  0
 26 27  1  0  0  0
 27  1  1  0  0  0
  1  2  1  0  0  0
  2 21  1  0  0  0
 21 22  1  0  0  0
 22 23  1  0  0  0
 23 24  1  0  0  0
 24 25  1  0  0  0
  2  3  1  0  0  0
  3  4  2  0  0  0
  4  5  1  0  0  0
  5  6  2  0  0  0
  6  7  1  0  0  0
  7  8  2  0  0  0
  8  9  1  0  0  0
  9 10  1  0  0  0
 10 11  2  0  0  0
  5 13  1  0  0  0
 13 14  2  0  0  0
 14 15  1  0  0  0
 15 16  2  0  0  0
 16 17  1  0  0  0
 17 18  2  0  0  0
 17 19  1  0  0  0
 19 20  3  0  0  0
 10  1  1  0  0  0
 18 13  1  0  0  0
 25 21  1  0  0  0
  8  3  1  0  0  0
  9 12  1  0  0  0
M  END
> <minimizedAffinity>
-7.63446

> <CNNscore>
0.6543732882

> <CNNaffinity>
6.9301290512

> <CNN_VS>
4.5348911285

> <CNNaffinity_variance>
0.2216823995

$$$$
[H]c1nc(-c2c([H])c([H])c([H])c(C#N)c2[H])nc2c1N([H])C(=O)[C@@]([H])(C([H])([H])C([H])([H])[H])N2C1([H])C([H])([H])C([H])([H])C([H])([H])C1([H])[H]


 27 30  0  0  0  0  0  0  0  0999 V2000
   56.7668   -5.0692   -7.9195 C   0  0  0  0  0  0  0  0  0  0  0  0
   55.4601   -5.3923   -7.4388 N   0  0  0  0  0  0  0  0  0  0  0  0
   54.3715   -4.5889   -7.9132 C   0  0  0  0  0  0  0  0  0  0  0  0
   53.2493   -4.4129   -7.1689 N   0  0  0  0  0  0  0  0  0  0  0  0
   52.2355   -3.6572   -7.6246 C   0  0  0  0  0  0  0  0  0  0  0  0
   52.3459   -3.0698   -8.8415 N   0  0  0  0  0  0  0  0  0  0  0  0
   53.4240   -3.2024   -9.6259 C   0  0  0  0  0  0  0  0  0  0  0  0
   54.4534   -3.9779   -9.1471 C   0  0  0  0  0  0  0  0  0  0  0  0
   55.6281   -4.1643   -9.9225 N   0  0  0  0  0  0  0  0  0  0  0  0
   56.6892   -4.9785   -9.4013 C   0  0  0  0  0  0  0  0  0  0  0  0
   57.4906   -5.5682  -10.1740 O   0  0  0  0  0  0  0  0  0  0  0  0
   55.7274   -3.7162  -10.8661 H   0  0  0  0  0  0  0  0  0  0  0  0
   51.0101   -3.4457   -6.8483 C   0  0  0  0  0  0  0  0  0  0  0  0
   50.0485   -2.5465   -7.2518 C   0  0  0  0  0  0  0  0  0  0  0  0
   48.8818   -2.3491   -6.5071 C   0  0  0  0  0  0  0  0  0  0  0  0
   48.6596   -3.0489   -5.3467 C   0  0  0  0  0  0  0  0  0  0  0  0
   49.6182   -3.9496   -4.9382 C   0  0  0  0  0  0  0  0  0  0  0  0
   50.7814   -4.1442   -5.6838 C   0  0  0  0  0  0  0  0  0  0  0  0
   49.3730   -4.6715   -3.7273 C   0  0  0  0  0  0  0  0  0  0  0  0
   49.1884   -5.2606   -2.7484 N   0  0  0  0  0  0  0  0  0  0  0  0
   55.1578   -6.4576   -6.5196 C   0  0  0  0  0  0  0  0  0  0  0  0
   54.0590   -6.0477   -5.5341 C   0  0  0  0  0  0  0  0  0  0  0  0
   54.2863   -7.0517   -4.4226 C   0  0  0  0  0  0  0  0  0  0  0  0
   55.7858   -6.9944   -4.2481 C   0  0  0  0  0  0  0  0  0  0  0  0
   56.2965   -6.8787   -5.6640 C   0  0  0  0  0  0  0  0  0  0  0  0
   56.4947   -3.3848   -6.0866 C   0  0  0  0  0  0  0  0  0  0  0  0
   57.1576   -3.6753   -7.4122 C   0  0  0  0  0  0  0  0  0  0  0  0
 26 27  1  0  0  0
 27  1  1  0  0  0
  1  2  1  0  0  0
  2 21  1  0  0  0
 21 22  1  0  0  0
 22 23  1  0  0  0
 23 24  1  0  0  0
 24 25  1  0  0  0
  2  3  1  0  0  0
  3  4  2  0  0  0
  4  5  1  0  0  0
  5  6  2  0  0  0
  6  7  1  0  0  0
  7  8  2  0  0  0
  8  9  1  0  0  0
  9 10  1  0  0  0
 10 11  2  0  0  0
  5 13  1  0  0  0
 13 14  2  0  0  0
 14 15  1  0  0  0
 15 16  2  0  0  0
 16 17  1  0  0  0
 17 18  2  0  0  0
 17 19  1  0  0  0
 19 20  3  0  0  0
 10  1  1  0  0  0
 18 13  1  0  0  0
 25 21  1  0  0  0
  8  3  1  0  0  0
  9 12  1  0  0  0
M  END
> <minimizedAffinity>
-8.25668

> <CNNscore>
0.5539176464

> <CNNaffinity>
7.1533141136

> <CNN_VS>
3.9623470306

> <CNNaffinity_variance>
0.3872191608

$$$$
[H]c1nc(-c2c([H])c([H])c([H])c(C#N)c2[H])nc2c1N([H])C(=O)[C@@]([H])(C([H])([H])C([H])([H])[H])N2C1([H])C([H])([H])C([H])([H])C([H])([H])C1([H])[H]


 27 30  0  0  0  0  0  0  0  0999 V2000
   58.2949   -4.4100  -11.6793 C   0  0  0  0  0  0  0  0  0  0  0  0
   59.6551   -4.8365  -11.5763 N   0  0  0  0  0  0  0  0  0  0  0  0
   60.5027   -4.5987  -12.7080 C   0  0  0  0  0  0  0  0  0  0  0  0
   61.5718   -5.3950  -12.9671 N   0  0  0  0  0  0  0  0  0  0  0  0
   62.3588   -5.1618  -14.0314 C   0  0  0  0  0  0  0  0  0  0  0  0
   62.0724   -4.1176  -14.8474 N   0  0  0  0  0  0  0  0  0  0  0  0
   61.0344   -3.2940  -14.6493 C   0  0  0  0  0  0  0  0  0  0  0  0
   60.2377   -3.5444  -13.5570 C   0  0  0  0  0  0  0  0  0  0  0  0
   59.1192   -2.7140  -13.2828 N   0  0  0  0  0  0  0  0  0  0  0  0
   58.3024   -2.9955  -12.1366 C   0  0  0  0  0  0  0  0  0  0  0  0
   57.6434   -2.0820  -11.5724 O   0  0  0  0  0  0  0  0  0  0  0  0
   58.8856   -1.9021  -13.9054 H   0  0  0  0  0  0  0  0  0  0  0  0
   63.5205   -6.0006  -14.3412 C   0  0  0  0  0  0  0  0  0  0  0  0
   64.4853   -5.5924  -15.2348 C   0  0  0  0  0  0  0  0  0  0  0  0
   65.5911   -6.3969  -15.5263 C   0  0  0  0  0  0  0  0  0  0  0  0
   65.7480   -7.6227  -14.9276 C   0  0  0  0  0  0  0  0  0  0  0  0
   64.7859   -8.0360  -14.0329 C   0  0  0  0  0  0  0  0  0  0  0  0
   63.6837   -7.2307  -13.7444 C   0  0  0  0  0  0  0  0  0  0  0  0
   64.9629   -9.3155  -13.4170 C   0  0  0  0  0  0  0  0  0  0  0  0
   65.1178  -10.3450  -12.9116 N   0  0  0  0  0  0  0  0  0  0  0  0
   60.2337   -5.4831  -10.4281 C   0  0  0  0  0  0  0  0  0  0  0  0
   60.0472   -7.0022  -10.4916 C   0  0  0  0  0  0  0  0  0  0  0  0
   60.2388   -7.3724   -9.0351 C   0  0  0  0  0  0  0  0  0  0  0  0
   59.3866   -6.3411   -8.3333 C   0  0  0  0  0  0  0  0  0  0  0  0
   59.6397   -5.0823   -9.1272 C   0  0  0  0  0  0  0  0  0  0  0  0
   56.1083   -5.2936  -12.5211 C   0  0  0  0  0  0  0  0  0  0  0  0
   57.5954   -5.2240  -12.7752 C   0  0  0  0  0  0  0  0  0  0  0  0
 26 27  1  0  0  0
 27  1  1  0  0  0
  1  2  1  0  0  0
  2 21  1  0  0  0
 21 22  1  0  0  0
 22 23  1  0  0  0
 23 24  1  0  0  0
 24 25  1  0  0  0
  2  3  1  0  0  0
  3  4  2  0  0  0
  4  5  1  0  0  0
  5  6  2  0  0  0
  6  7  1  0  0  0
  7  8  2  0  0  0
  8  9  1  0  0  0
  9 10  1  0  0  0
 10 11  2  0  0  0
  5 13  1  0  0  0
 13 14  2  0  0  0
 14 15  1  0  0  0
 15 16  2  0  0  0
 16 17  1  0  0  0
 17 18  2  0  0  0
 17 19  1  0  0  0
 19 20  3  0  0  0
 10  1  1  0  0  0
 18 13  1  0  0  0
 25 21  1  0  0  0
  8  3  1  0  0  0
  9 12  1  0  0  0
M  END
> <minimizedAffinity>
5.25058

> <CNNscore>
0.4892416596

> <CNNaffinity>
4.8145222664

> <CNN_VS>
2.3554649353

> <CNNaffinity_variance>
0.3015693724

$$$$
[H]c1nc(-c2c([H])c([H])c([H])c(C#N)c2[H])nc2c1N([H])C(=O)[C@@]([H])(C([H])([H])C([H])([H])[H])N2C1([H])C([H])([H])C([H])([H])C([H])([H])C1([H])[H]


 27 30  0  0  0  0  0  0  0  0999 V2000
   56.8929   -4.3873  -15.2851 C   0  0  0  0  0  0  0  0  0  0  0  0
   58.2890   -4.2451  -15.0144 N   0  0  0  0  0  0  0  0  0  0  0  0
   58.6594   -3.4084  -13.9105 C   0  0  0  0  0  0  0  0  0  0  0  0
   59.8545   -2.7639  -13.8850 N   0  0  0  0  0  0  0  0  0  0  0  0
   60.1902   -1.9823  -12.8444 C   0  0  0  0  0  0  0  0  0  0  0  0
   59.3184   -1.8435  -11.8154 N   0  0  0  0  0  0  0  0  0  0  0  0
   58.1245   -2.4505  -11.7775 C   0  0  0  0  0  0  0  0  0  0  0  0
   57.7942   -3.2469  -12.8485 C   0  0  0  0  0  0  0  0  0  0  0  0
   56.5457   -3.9223  -12.8787 N   0  0  0  0  0  0  0  0  0  0  0  0
   56.2235   -4.7481  -14.0076 C   0  0  0  0  0  0  0  0  0  0  0  0
   55.4203   -5.7122  -13.8951 O   0  0  0  0  0  0  0  0  0  0  0  0
   55.8612   -3.8245  -12.0893 H   0  0  0  0  0  0  0  0  0  0  0  0
   61.4712   -1.2721  -12.7837 C   0  0  0  0  0  0  0  0  0  0  0  0
   61.6649   -0.2085  -11.9308 C   0  0  0  0  0  0  0  0  0  0  0  0
   62.8890    0.4649  -11.8773 C   0  0  0  0  0  0  0  0  0  0  0  0
   63.9383    0.0840  -12.6770 C   0  0  0  0  0  0  0  0  0  0  0  0
   63.7501   -0.9792  -13.5321 C   0  0  0  0  0  0  0  0  0  0  0  0
   62.5273   -1.6490  -13.5829 C   0  0  0  0  0  0  0  0  0  0  0  0
   64.8524   -1.3647  -14.3592 C   0  0  0  0  0  0  0  0  0  0  0  0
   65.7532   -1.6704  -15.0184 N   0  0  0  0  0  0  0  0  0  0  0  0
   59.3443   -4.8753  -15.7630 C   0  0  0  0  0  0  0  0  0  0  0  0
   60.7223   -4.4063  -15.2859 C   0  0  0  0  0  0  0  0  0  0  0  0
   61.5744   -4.7622  -16.4869 C   0  0  0  0  0  0  0  0  0  0  0  0
   60.7390   -4.2392  -17.6318 C   0  0  0  0  0  0  0  0  0  0  0  0
   59.3285   -4.5850  -17.2195 C   0  0  0  0  0  0  0  0  0  0  0  0
   56.1611   -2.9667  -17.2130 C   0  0  0  0  0  0  0  0  0  0  0  0
   56.3237   -3.0286  -15.7128 C   0  0  0  0  0  0  0  0  0  0  0  0
 26 27  1  0  0  0
 27  1  1  0  0  0
  1  2  1  0  0  0
  2 21  1  0  0  0
 21 22  1  0  0  0
 22 23  1  0  0  0
 23 24  1  0  0  0
 24 25  1  0  0  0
  2  3  1  0  0  0
  3  4  2  0  0  0
  4  5  1  0  0  0
  5  6  2  0  0  0
  6  7  1  0  0  0
  7  8  2  0  0  0
  8  9  1  0  0  0
  9 10  1  0  0  0
 10 11  2  0  0  0
  5 13  1  0  0  0
 13 14  2  0  0  0
 14 15  1  0  0  0
 15 16  2  0  0  0
 16 17  1  0  0  0
 17 18  2  0  0  0
 17 19  1  0  0  0
 19 20  3  0  0  0
 10  1  1  0  0  0
 18 13  1  0  0  0
 25 21  1  0  0  0
  8  3  1  0  0  0
  9 12  1  0  0  0
M  END
> <minimizedAffinity>
7.76293

> <CNNscore>
0.4792158902

> <CNNaffinity>
4.7465300560

> <CNN_VS>
2.2746126652

> <CNNaffinity_variance>
0.0847785324

$$$$
[H]c1nc(-c2c([H])c([H])c([H])c(C#N)c2[H])nc2c1N([H])C(=O)[C@@]([H])(C([H])([H])C([H])([H])[H])N2C1([H])C([H])([H])C([H])([H])C([H])([H])C1([H])[H]


 27 30  0  0  0  0  0  0  0  0999 V2000
   55.8265   -4.5336  -12.7079 C   0  0  0  0  0  0  0  0  0  0  0  0
   56.5931   -4.7058  -11.5140 N   0  0  0  0  0  0  0  0  0  0  0  0
   58.0190   -4.7586  -11.6541 C   0  0  0  0  0  0  0  0  0  0  0  0
   58.7893   -5.4395  -10.7667 N   0  0  0  0  0  0  0  0  0  0  0  0
   60.1251   -5.4815  -10.9089 C   0  0  0  0  0  0  0  0  0  0  0  0
   60.6981   -4.8335  -11.9530 N   0  0  0  0  0  0  0  0  0  0  0  0
   59.9973   -4.1441  -12.8633 C   0  0  0  0  0  0  0  0  0  0  0  0
   58.6319   -4.1097  -12.7056 C   0  0  0  0  0  0  0  0  0  0  0  0
   57.8233   -3.3988  -13.6313 N   0  0  0  0  0  0  0  0  0  0  0  0
   56.4001   -3.3773  -13.4455 C   0  0  0  0  0  0  0  0  0  0  0  0
   55.7045   -2.4257  -13.8901 O   0  0  0  0  0  0  0  0  0  0  0  0
   58.2529   -2.8924  -14.4438 H   0  0  0  0  0  0  0  0  0  0  0  0
   60.9870   -6.2065   -9.9705 C   0  0  0  0  0  0  0  0  0  0  0  0
   60.6330   -6.3742   -8.6504 C   0  0  0  0  0  0  0  0  0  0  0  0
   61.4592   -7.0667   -7.7601 C   0  0  0  0  0  0  0  0  0  0  0  0
   62.6529   -7.6020   -8.1776 C   0  0  0  0  0  0  0  0  0  0  0  0
   63.0120   -7.4372   -9.4970 C   0  0  0  0  0  0  0  0  0  0  0  0
   62.1851   -6.7456  -10.3828 C   0  0  0  0  0  0  0  0  0  0  0  0
   64.2584   -8.0005   -9.9175 C   0  0  0  0  0  0  0  0  0  0  0  0
   65.2608   -8.4584  -10.2711 N   0  0  0  0  0  0  0  0  0  0  0  0
   56.0434   -4.8297  -10.1897 C   0  0  0  0  0  0  0  0  0  0  0  0
   54.6443   -4.2113  -10.1075 C   0  0  0  0  0  0  0  0  0  0  0  0
   54.5165   -3.9971   -8.6131 C   0  0  0  0  0  0  0  0  0  0  0  0
   55.8495   -3.3752   -8.2690 C   0  0  0  0  0  0  0  0  0  0  0  0
   56.8240   -4.1434   -9.1288 C   0  0  0  0  0  0  0  0  0  0  0  0
   55.9196   -5.3806  -15.0626 C   0  0  0  0  0  0  0  0  0  0  0  0
   56.0112   -5.7643  -13.6047 C   0  0  0  0  0  0  0  0  0  0  0  0
 26 27  1  0  0  0
 27  1  1  0  0  0
  1  2  1  0  0  0
  2 21  1  0  0  0
 21 22  1  0  0  0
 22 23  1  0  0  0
 23 24  1  0  0  0
 24 25  1  0  0  0
  2  3  1  0  0  0
  3  4  2  0  0  0
  4  5  1  0  0  0
  5  6  2  0  0  0
  6  7  1  0  0  0
  7  8  2  0  0  0
  8  9  1  0  0  0
  9 10  1  0  0  0
 10 11  2  0  0  0
  5 13  1  0  0  0
 13 14  2  0  0  0
 14 15  1  0  0  0
 15 16  2  0  0  0
 16 17  1  0  0  0
 17 18  2  0  0  0
 17 19  1  0  0  0
 19 20  3  0  0  0
 10  1  1  0  0  0
 18 13  1  0  0  0
 25 21  1  0  0  0
  8  3  1  0  0  0
  9 12  1  0  0  0
M  END
> <minimizedAffinity>
-2.13706

> <CNNscore>
0.4668981731

> <CNNaffinity>
5.4975080490

> <CNN_VS>
2.5667765141

> <CNNaffinity_variance>
0.1299722493

$$$$
[H]c1nc(-c2c([H])c([H])c([H])c(C#N)c2[H])nc2c1N([H])C(=O)[C@@]([H])(C([H])([H])C([H])([H])[H])N2C1([H])C([H])([H])C([H])([H])C([H])([H])C1([H])[H]


 27 30  0  0  0  0  0  0  0  0999 V2000
   53.0735   -5.1418   -6.7378 C   0  0  0  0  0  0  0  0  0  0  0  0
   54.4990   -5.0616   -6.6717 N   0  0  0  0  0  0  0  0  0  0  0  0
   55.1965   -4.7944   -7.8955 C   0  0  0  0  0  0  0  0  0  0  0  0
   56.4695   -5.2260   -8.0895 N   0  0  0  0  0  0  0  0  0  0  0  0
   57.1128   -4.9692   -9.2413 C   0  0  0  0  0  0  0  0  0  0  0  0
   56.4739   -4.2711  -10.2122 N   0  0  0  0  0  0  0  0  0  0  0  0
   55.2198   -3.8167  -10.0857 C   0  0  0  0  0  0  0  0  0  0  0  0
   54.5738   -4.0867   -8.9025 C   0  0  0  0  0  0  0  0  0  0  0  0
   53.2430   -3.6371   -8.6960 N   0  0  0  0  0  0  0  0  0  0  0  0
   52.5895   -3.9312   -7.4523 C   0  0  0  0  0  0  0  0  0  0  0  0
   51.6664   -3.1929   -7.0167 O   0  0  0  0  0  0  0  0  0  0  0  0
   52.7362   -3.0954   -9.4383 H   0  0  0  0  0  0  0  0  0  0  0  0
   58.4864   -5.4196   -9.4847 C   0  0  0  0  0  0  0  0  0  0  0  0
   59.0630   -5.3302  -10.7319 C   0  0  0  0  0  0  0  0  0  0  0  0
   60.3737   -5.7614  -10.9579 C   0  0  0  0  0  0  0  0  0  0  0  0
   61.1275   -6.2891   -9.9386 C   0  0  0  0  0  0  0  0  0  0  0  0
   60.5557   -6.3811   -8.6889 C   0  0  0  0  0  0  0  0  0  0  0  0
   59.2475   -5.9498   -8.4669 C   0  0  0  0  0  0  0  0  0  0  0  0
   61.3532   -6.9329   -7.6367 C   0  0  0  0  0  0  0  0  0  0  0  0
   61.9953   -7.3674   -6.7775 N   0  0  0  0  0  0  0  0  0  0  0  0
   55.2814   -5.2284   -5.4754 C   0  0  0  0  0  0  0  0  0  0  0  0
   56.0441   -6.5568   -5.4895 C   0  0  0  0  0  0  0  0  0  0  0  0
   56.3340   -6.7329   -4.0130 C   0  0  0  0  0  0  0  0  0  0  0  0
   54.9954   -6.4149   -3.3891 C   0  0  0  0  0  0  0  0  0  0  0  0
   54.4912   -5.2584   -4.2181 C   0  0  0  0  0  0  0  0  0  0  0  0
   51.2257   -6.7038   -7.3833 C   0  0  0  0  0  0  0  0  0  0  0  0
   52.6780   -6.3490   -7.5976 C   0  0  0  0  0  0  0  0  0  0  0  0
 26 27  1  0  0  0
 27  1  1  0  0  0
  1  2  1  0  0  0
  2 21  1  0  0  0
 21 22  1  0  0  0
 22 23  1  0  0  0
 23 24  1  0  0  0
 24 25  1  0  0  0
  2  3  1  0  0  0
  3  4  2  0  0  0
  4  5  1  0  0  0
  5  6  2  0  0  0
  6  7  1  0  0  0
  7  8  2  0  0  0
  8  9  1  0  0  0
  9 10  1  0  0  0
 10 11  2  0  0  0
  5 13  1  0  0  0
 13 14  2  0  0  0
 14 15  1  0  0  0
 15 16  2  0  0  0
 16 17  1  0  0  0
 17 18  2  0  0  0
 17 19  1  0  0  0
 19 20  3  0  0  0
 10  1  1  0  0  0
 18 13  1  0  0  0
 25 21  1  0  0  0
  8  3  1  0  0  0
  9 12  1  0  0  0
M  END
> <minimizedAffinity>
-6.17437

> <CNNscore>
0.4477684200

> <CNNaffinity>
6.6553068161

> <CNN_VS>
2.9800362587

> <CNNaffinity_variance>
0.2868186533

$$$$
[H]c1nc(-c2c([H])c([H])c([H])c(C#N)c2[H])nc2c1N([H])C(=O)[C@@]([H])(C([H])([H])C([H])([H])[H])N2C1([H])C([H])([H])C([H])([H])C([H])([H])C1([H])[H]


 27 30  0  0  0  0  0  0  0  0999 V2000
   53.4419   -2.9603   -9.2333 C   0  0  0  0  0  0  0  0  0  0  0  0
   54.1947   -4.0642   -8.7260 N   0  0  0  0  0  0  0  0  0  0  0  0
   53.7948   -4.6012   -7.4582 C   0  0  0  0  0  0  0  0  0  0  0  0
   54.6873   -5.2180   -6.6412 N   0  0  0  0  0  0  0  0  0  0  0  0
   54.3000   -5.7174   -5.4550 C   0  0  0  0  0  0  0  0  0  0  0  0
   53.0023   -5.5981   -5.0811 N   0  0  0  0  0  0  0  0  0  0  0  0
   52.0716   -5.0021   -5.8385 C   0  0  0  0  0  0  0  0  0  0  0  0
   52.4817   -4.4958   -7.0492 C   0  0  0  0  0  0  0  0  0  0  0  0
   51.5515   -3.8503   -7.9060 N   0  0  0  0  0  0  0  0  0  0  0  0
   52.0036   -3.3299   -9.1650 C   0  0  0  0  0  0  0  0  0  0  0  0
   51.2098   -3.2047  -10.1352 O   0  0  0  0  0  0  0  0  0  0  0  0
   50.5440   -3.7511   -7.6299 H   0  0  0  0  0  0  0  0  0  0  0  0
   55.2360   -6.3890   -4.5484 C   0  0  0  0  0  0  0  0  0  0  0  0
   56.5318   -6.6629   -4.9252 C   0  0  0  0  0  0  0  0  0  0  0  0
   57.4199   -7.3037   -4.0560 C   0  0  0  0  0  0  0  0  0  0  0  0
   57.0245   -7.6805   -2.7961 C   0  0  0  0  0  0  0  0  0  0  0  0
   55.7293   -7.4090   -2.4140 C   0  0  0  0  0  0  0  0  0  0  0  0
   54.8456   -6.7693   -3.2838 C   0  0  0  0  0  0  0  0  0  0  0  0
   55.3316   -7.8073   -1.0984 C   0  0  0  0  0  0  0  0  0  0  0  0
   55.0028   -8.1410   -0.0401 N   0  0  0  0  0  0  0  0  0  0  0  0
   55.3176   -4.6730   -9.3891 C   0  0  0  0  0  0  0  0  0  0  0  0
   56.6356   -4.3131   -8.6962 C   0  0  0  0  0  0  0  0  0  0  0  0
   57.6265   -4.5990   -9.8060 C   0  0  0  0  0  0  0  0  0  0  0  0
   56.9684   -3.9373  -10.9940 C   0  0  0  0  0  0  0  0  0  0  0  0
   55.5048   -4.2529  -10.8013 C   0  0  0  0  0  0  0  0  0  0  0  0
   55.0005   -1.1449   -8.4948 C   0  0  0  0  0  0  0  0  0  0  0  0
   53.6319   -1.7543   -8.3046 C   0  0  0  0  0  0  0  0  0  0  0  0
 26 27  1  0  0  0
 27  1  1  0  0  0
  1  2  1  0  0  0
  2 21  1  0  0  0
 21 22  1  0  0  0
 22 23  1  0  0  0
 23 24  1  0  0  0
 24 25  1  0  0  0
  2  3  1  0  0  0
  3  4  2  0  0  0
  4  5  1  0  0  0
  5  6  2  0  0  0
  6  7  1  0  0  0
  7  8  2  0  0  0
  8  9  1  0  0  0
  9 10  1  0  0  0
 10 11  2  0  0  0
  5 13  1  0  0  0
 13 14  2  0  0  0
 14 15  1  0  0  0
 15 16  2  0  0  0
 16 17  1  0  0  0
 17 18  2  0  0  0
 17 19  1  0  0  0
 19 20  3  0  0  0
 10  1  1  0  0  0
 18 13  1  0  0  0
 25 21  1  0  0  0
  8  3  1  0  0  0
  9 12  1  0  0  0
M  END
> <minimizedAffinity>
-1.92160

> <CNNscore>
0.4126265943

> <CNNaffinity>
6.4833054543

> <CNN_VS>
2.6751842499

> <CNNaffinity_variance>
0.5444148183

$$$$
[H]c1nn([H])c([H])c1-c1c([H])c([H])c2c(nc([H])n2-c2sc(C(=O)N([H])[H])c(O[C@@]([H])(c3c([H])c([H])c([H])c([H])c3C(F)(F)F)C([H])([H])[H])c2[H])c1[H]


 38 42  0  0  0  0  0  0  0  0999 V2000
   51.1293   -4.7646   -4.9742 C   0  0  0  0  0  0  0  0  0  0  0  0
   52.0066   -4.7189   -5.9735 C   0  0  0  0  0  0  0  0  0  0  0  0
   51.7387   -3.8807   -7.0351 C   0  0  0  0  0  0  0  0  0  0  0  0
   50.2521   -3.1811   -6.5897 S   0  0  0  0  0  0  0  0  0  0  0  0
   50.0078   -3.9523   -5.0945 C   0  0  0  0  0  0  0  0  0  0  0  0
   52.5483   -3.6802   -8.2065 N   0  0  0  0  0  0  0  0  0  0  0  0
   52.2630   -3.0720   -9.3617 C   0  0  0  0  0  0  0  0  0  0  0  0
   53.3279   -3.1159  -10.1914 N   0  0  0  0  0  0  0  0  0  0  0  0
   54.3080   -3.7556   -9.5711 C   0  0  0  0  0  0  0  0  0  0  0  0
   55.6122   -4.1183   -9.8727 C   0  0  0  0  0  0  0  0  0  0  0  0
   56.4350   -4.8012   -9.0140 C   0  0  0  0  0  0  0  0  0  0  0  0
   55.9164   -5.1400   -7.7784 C   0  0  0  0  0  0  0  0  0  0  0  0
   54.6292   -4.8018   -7.4350 C   0  0  0  0  0  0  0  0  0  0  0  0
   53.8102   -4.1127   -8.3113 C   0  0  0  0  0  0  0  0  0  0  0  0
   57.7960   -5.1508   -9.3952 C   0  0  0  0  0  0  0  0  0  0  0  0
   58.3034   -5.0929  -10.6834 C   0  0  0  0  0  0  0  0  0  0  0  0
   59.5858   -5.4917  -10.6223 N   0  0  0  0  0  0  0  0  0  0  0  0
   59.9342   -5.8003   -9.3875 N   0  0  0  0  0  0  0  0  0  0  0  0
   58.8464   -5.5972   -8.6162 C   0  0  0  0  0  0  0  0  0  0  0  0
   60.8880   -6.1418   -9.0681 H   0  0  0  0  0  0  0  0  0  0  0  0
   48.8814   -3.7804   -4.1815 C   0  0  0  0  0  0  0  0  0  0  0  0
   48.5963   -4.7481   -3.2073 N   0  0  0  0  0  0  0  0  0  0  0  0
   48.1785   -2.7533   -4.2877 O   0  0  0  0  0  0  0  0  0  0  0  0
   48.2359   -4.4759   -2.2565 H   0  0  0  0  0  0  0  0  0  0  0  0
   48.7198   -5.7752   -3.3586 H   0  0  0  0  0  0  0  0  0  0  0  0
   51.2260   -5.5576   -3.8015 O   0  0  0  0  0  0  0  0  0  0  0  0
   51.6785   -7.7194   -2.8695 C   0  0  0  0  0  0  0  0  0  0  0  0
   52.2329   -6.4670   -3.6436 C   0  0  0  0  0  0  0  0  0  0  0  0
   53.5123   -6.0816   -3.0940 C   0  0  0  0  0  0  0  0  0  0  0  0
   53.5570   -5.1928   -2.0060 C   0  0  0  0  0  0  0  0  0  0  0  0
   54.7132   -4.7847   -1.3991 C   0  0  0  0  0  0  0  0  0  0  0  0
   55.9193   -5.2617   -1.8664 C   0  0  0  0  0  0  0  0  0  0  0  0
   55.8959   -6.1234   -2.9203 C   0  0  0  0  0  0  0  0  0  0  0  0
   54.7054   -6.5497   -3.5539 C   0  0  0  0  0  0  0  0  0  0  0  0
   54.7768   -7.4484   -4.6920 C   0  0  0  0  0  0  0  0  0  0  0  0
   56.0636   -7.2701   -5.2780 F   0  0  0  0  0  0  0  0  0  0  0  0
   54.7499   -8.7899   -4.4225 F   0  0  0  0  0  0  0  0  0  0  0  0
   53.9901   -7.0630   -5.7693 F   0  0  0  0  0  0  0  0  0  0  0  0
 27 28  1  0  0  0
 28 26  1  0  0  0
 26  1  1  0  0  0
  1  2  1  0  0  0
  2  3  2  0  0  0
  3  4  1  0  0  0
  4  5  1  0  0  0
  5 21  1  0  0  0
 21 22  1  0  0  0
 21 23  2  0  0  0
  3  6  1  0  0  0
  6  7  1  0  0  0
  7  8  2  0  0  0
  8  9  1  0  0  0
  9 10  2  0  0  0
 10 11  1  0  0  0
 11 12  2  0  0  0
 12 13  1  0  0  0
 13 14  2  0  0  0
 11 15  1  0  0  0
 15 16  1  0  0  0
 16 17  2  0  0  0
 17 18  1  0  0  0
 18 19  1  0  0  0
 28 29  1  0  0  0
 29 30  2  0  0  0
 30 31  1  0  0  0
 31 32  2  0  0  0
 32 33  1  0  0  0
 33 34  2  0  0  0
 34 35  1  0  0  0
 35 36  1  0  0  0
 35 37  1  0  0  0
 35 38  1  0  0  0
  5  1  2  0  0  0
 14  6  1  0  0  0
 19 15  2  0  0  0
 34 29  1  0  0  0
 14  9  1  0  0  0
 22 24  1  0  0  0
 22 25  1  0  0  0
 18 20  1  0  0  0
M  END
> <minimizedAffinity>
-9.54937

> <CNNscore>
0.6843172908

> <CNNaffinity>
8.0123844147

> <CNN_VS>
5.4830131531

> <CNNaffinity_variance>
0.1436093897

$$$$
[H]c1nn([H])c([H])c1-c1c([H])c([H])c2c(nc([H])n2-c2sc(C(=O)N([H])[H])c(O[C@@]([H])(c3c([H])c([H])c([H])c([H])c3C(F)(F)F)C([H])([H])[H])c2[H])c1[H]


 38 42  0  0  0  0  0  0  0  0999 V2000
   56.9854   -4.4705  -10.6338 C   0  0  0  0  0  0  0  0  0  0  0  0
   55.7432   -4.0031  -10.5401 C   0  0  0  0  0  0  0  0  0  0  0  0
   55.1354   -4.0179   -9.3024 C   0  0  0  0  0  0  0  0  0  0  0  0
   56.3388   -4.6936   -8.3059 S   0  0  0  0  0  0  0  0  0  0  0  0
   57.5637   -4.9376   -9.4592 C   0  0  0  0  0  0  0  0  0  0  0  0
   53.8097   -3.5617   -8.9827 N   0  0  0  0  0  0  0  0  0  0  0  0
   53.0016   -2.7235   -9.6384 C   0  0  0  0  0  0  0  0  0  0  0  0
   51.8360   -2.5765   -8.9718 N   0  0  0  0  0  0  0  0  0  0  0  0
   51.8890   -3.3231   -7.8789 C   0  0  0  0  0  0  0  0  0  0  0  0
   51.0425   -3.5986   -6.8153 C   0  0  0  0  0  0  0  0  0  0  0  0
   51.3617   -4.4407   -5.7811 C   0  0  0  0  0  0  0  0  0  0  0  0
   52.6057   -5.0420   -5.8176 C   0  0  0  0  0  0  0  0  0  0  0  0
   53.4783   -4.7993   -6.8515 C   0  0  0  0  0  0  0  0  0  0  0  0
   53.1431   -3.9473   -7.8885 C   0  0  0  0  0  0  0  0  0  0  0  0
   50.4243   -4.6859   -4.6944 C   0  0  0  0  0  0  0  0  0  0  0  0
   50.6739   -5.4857   -3.5907 C   0  0  0  0  0  0  0  0  0  0  0  0
   49.5706   -5.4571   -2.8230 N   0  0  0  0  0  0  0  0  0  0  0  0
   48.6340   -4.6964   -3.3571 N   0  0  0  0  0  0  0  0  0  0  0  0
   49.1395   -4.2118   -4.5099 C   0  0  0  0  0  0  0  0  0  0  0  0
   47.6702   -4.5057   -2.9531 H   0  0  0  0  0  0  0  0  0  0  0  0
   58.8913   -5.5030   -9.2368 C   0  0  0  0  0  0  0  0  0  0  0  0
   59.6737   -5.9374  -10.3166 N   0  0  0  0  0  0  0  0  0  0  0  0
   59.3139   -5.5908   -8.0646 O   0  0  0  0  0  0  0  0  0  0  0  0
   60.7196   -5.8176  -10.3161 H   0  0  0  0  0  0  0  0  0  0  0  0
   59.2793   -6.3963  -11.1691 H   0  0  0  0  0  0  0  0  0  0  0  0
   57.7755   -4.5381  -11.8105 O   0  0  0  0  0  0  0  0  0  0  0  0
   56.4375   -5.4634  -13.5713 C   0  0  0  0  0  0  0  0  0  0  0  0
   57.2511   -4.2290  -13.0333 C   0  0  0  0  0  0  0  0  0  0  0  0
   58.0775   -3.6922  -14.0898 C   0  0  0  0  0  0  0  0  0  0  0  0
   59.4615   -3.5590  -13.8839 C   0  0  0  0  0  0  0  0  0  0  0  0
   60.3327   -3.0850  -14.8263 C   0  0  0  0  0  0  0  0  0  0  0  0
   59.8454   -2.7096  -16.0600 C   0  0  0  0  0  0  0  0  0  0  0  0
   58.5070   -2.8310  -16.2778 C   0  0  0  0  0  0  0  0  0  0  0  0
   57.5994   -3.3192  -15.3091 C   0  0  0  0  0  0  0  0  0  0  0  0
   56.1825   -3.3864  -15.6182 C   0  0  0  0  0  0  0  0  0  0  0  0
   55.9506   -2.4760  -16.6899 F   0  0  0  0  0  0  0  0  0  0  0  0
   55.7152   -4.5707  -16.1203 F   0  0  0  0  0  0  0  0  0  0  0  0
   55.3641   -2.8071  -14.6577 F   0  0  0  0  0  0  0  0  0  0  0  0
 27 28  1  0  0  0
 28 26  1  0  0  0
 26  1  1  0  0  0
  1  2  1  0  0  0
  2  3  2  0  0  0
  3  4  1  0  0  0
  4  5  1  0  0  0
  5 21  1  0  0  0
 21 22  1  0  0  0
 21 23  2  0  0  0
  3  6  1  0  0  0
  6  7  1  0  0  0
  7  8  2  0  0  0
  8  9  1  0  0  0
  9 10  2  0  0  0
 10 11  1  0  0  0
 11 12  2  0  0  0
 12 13  1  0  0  0
 13 14  2  0  0  0
 11 15  1  0  0  0
 15 16  1  0  0  0
 16 17  2  0  0  0
 17 18  1  0  0  0
 18 19  1  0  0  0
 28 29  1  0  0  0
 29 30  2  0  0  0
 30 31  1  0  0  0
 31 32  2  0  0  0
 32 33  1  0  0  0
 33 34  2  0  0  0
 34 35  1  0  0  0
 35 36  1  0  0  0
 35 37  1  0  0  0
 35 38  1  0  0  0
  5  1  2  0  0  0
 14  6  1  0  0  0
 19 15  2  0  0  0
 34 29  1  0  0  0
 14  9  1  0  0  0
 22 24  1  0  0  0
 22 25  1  0  0  0
 18 20  1  0  0  0
M  END
> <minimizedAffinity>
-8.83416

> <CNNscore>
0.6674953699

> <CNNaffinity>
7.4806661606

> <CNN_VS>
4.9933099747

> <CNNaffinity_variance>
0.1857842505

$$$$
[H]c1nn([H])c([H])c1-c1c([H])c([H])c2c(nc([H])n2-c2sc(C(=O)N([H])[H])c(O[C@@]([H])(c3c([H])c([H])c([H])c([H])c3C(F)(F)F)C([H])([H])[H])c2[H])c1[H]


 38 42  0  0  0  0  0  0  0  0999 V2000
   52.9717   -4.1309   -7.4696 C   0  0  0  0  0  0  0  0  0  0  0  0
   54.0913   -4.4790   -8.0987 C   0  0  0  0  0  0  0  0  0  0  0  0
   54.3362   -3.9306   -9.3399 C   0  0  0  0  0  0  0  0  0  0  0  0
   52.9746   -2.9381   -9.5824 S   0  0  0  0  0  0  0  0  0  0  0  0
   52.1404   -3.2346   -8.1312 C   0  0  0  0  0  0  0  0  0  0  0  0
   55.4770   -4.1684  -10.1824 N   0  0  0  0  0  0  0  0  0  0  0  0
   55.6467   -3.9529  -11.4902 C   0  0  0  0  0  0  0  0  0  0  0  0
   56.8881   -4.3252  -11.8707 N   0  0  0  0  0  0  0  0  0  0  0  0
   57.5260   -4.7841  -10.8044 C   0  0  0  0  0  0  0  0  0  0  0  0
   58.7859   -5.2998  -10.5392 C   0  0  0  0  0  0  0  0  0  0  0  0
   59.1982   -5.7131   -9.2983 C   0  0  0  0  0  0  0  0  0  0  0  0
   58.2905   -5.6018   -8.2620 C   0  0  0  0  0  0  0  0  0  0  0  0
   57.0304   -5.0967   -8.4768 C   0  0  0  0  0  0  0  0  0  0  0  0
   56.6277   -4.6835   -9.7341 C   0  0  0  0  0  0  0  0  0  0  0  0
   60.5373   -6.2454   -9.0896 C   0  0  0  0  0  0  0  0  0  0  0  0
   61.4981   -6.3972  -10.0764 C   0  0  0  0  0  0  0  0  0  0  0  0
   62.5904   -6.9162   -9.4892 N   0  0  0  0  0  0  0  0  0  0  0  0
   62.3964   -7.1070   -8.1981 N   0  0  0  0  0  0  0  0  0  0  0  0
   61.1383   -6.7003   -7.9314 C   0  0  0  0  0  0  0  0  0  0  0  0
   63.0985   -7.5042   -7.5068 H   0  0  0  0  0  0  0  0  0  0  0  0
   50.8618   -2.6681   -7.7115 C   0  0  0  0  0  0  0  0  0  0  0  0
   49.8348   -3.4957   -7.2349 N   0  0  0  0  0  0  0  0  0  0  0  0
   50.7037   -1.4313   -7.7865 O   0  0  0  0  0  0  0  0  0  0  0  0
   49.1954   -3.1813   -6.4601 H   0  0  0  0  0  0  0  0  0  0  0  0
   49.6429   -4.4531   -7.6086 H   0  0  0  0  0  0  0  0  0  0  0  0
   52.5447   -4.5825   -6.1941 O   0  0  0  0  0  0  0  0  0  0  0  0
   51.1052   -6.4979   -6.2725 C   0  0  0  0  0  0  0  0  0  0  0  0
   52.5145   -5.9136   -5.8885 C   0  0  0  0  0  0  0  0  0  0  0  0
   52.9004   -6.3919   -4.5810 C   0  0  0  0  0  0  0  0  0  0  0  0
   51.9508   -6.4121   -3.5450 C   0  0  0  0  0  0  0  0  0  0  0  0
   52.2080   -6.8669   -2.2806 C   0  0  0  0  0  0  0  0  0  0  0  0
   53.4685   -7.3388   -1.9822 C   0  0  0  0  0  0  0  0  0  0  0  0
   54.4021   -7.3265   -2.9732 C   0  0  0  0  0  0  0  0  0  0  0  0
   54.1448   -6.8575   -4.2825 C   0  0  0  0  0  0  0  0  0  0  0  0
   55.2101   -6.8534   -5.2689 C   0  0  0  0  0  0  0  0  0  0  0  0
   56.3354   -7.4840   -4.6630 F   0  0  0  0  0  0  0  0  0  0  0  0
   55.0119   -7.6048   -6.3954 F   0  0  0  0  0  0  0  0  0  0  0  0
   55.7611   -5.6007   -5.5037 F   0  0  0  0  0  0  0  0  0  0  0  0
 27 28  1  0  0  0
 28 26  1  0  0  0
 26  1  1  0  0  0
  1  2  1  0  0  0
  2  3  2  0  0  0
  3  4  1  0  0  0
  4  5  1  0  0  0
  5 21  1  0  0  0
 21 22  1  0  0  0
 21 23  2  0  0  0
  3  6  1  0  0  0
  6  7  1  0  0  0
  7  8  2  0  0  0
  8  9  1  0  0  0
  9 10  2  0  0  0
 10 11  1  0  0  0
 11 12  2  0  0  0
 12 13  1  0  0  0
 13 14  2  0  0  0
 11 15  1  0  0  0
 15 16  1  0  0  0
 16 17  2  0  0  0
 17 18  1  0  0  0
 18 19  1  0  0  0
 28 29  1  0  0  0
 29 30  2  0  0  0
 30 31  1  0  0  0
 31 32  2  0  0  0
 32 33  1  0  0  0
 33 34  2  0  0  0
 34 35  1  0  0  0
 35 36  1  0  0  0
 35 37  1  0  0  0
 35 38  1  0  0  0
  5  1  2  0  0  0
 14  6  1  0  0  0
 19 15  2  0  0  0
 34 29  1  0  0  0
 14  9  1  0  0  0
 22 24  1  0  0  0
 22 25  1  0  0  0
 18 20  1  0  0  0
M  END
> <minimizedAffinity>
-8.92748

> <CNNscore>
0.5368134379

> <CNNaffinity>
7.6334753036

> <CNN_VS>
4.0977520943

> <CNNaffinity_variance>
0.2149304599

$$$$
[H]c1nn([H])c([H])c1-c1c([H])c([H])c2c(nc([H])n2-c2sc(C(=O)N([H])[H])c(O[C@@]([H])(c3c([H])c([H])c([H])c([H])c3C(F)(F)F)C([H])([H])[H])c2[H])c1[H]


 38 42  0  0  0  0  0  0  0  0999 V2000
   57.2636   -4.8717  -10.7704 C   0  0  0  0  0  0  0  0  0  0  0  0
   56.0188   -4.4098  -10.6836 C   0  0  0  0  0  0  0  0  0  0  0  0
   55.4674   -4.2606   -9.4286 C   0  0  0  0  0  0  0  0  0  0  0  0
   56.7259   -4.7788   -8.4062 S   0  0  0  0  0  0  0  0  0  0  0  0
   57.9020   -5.1658   -9.5712 C   0  0  0  0  0  0  0  0  0  0  0  0
   54.1496   -3.7795   -9.1128 N   0  0  0  0  0  0  0  0  0  0  0  0
   53.3562   -2.9323   -9.7749 C   0  0  0  0  0  0  0  0  0  0  0  0
   52.1930   -2.7607   -9.1099 N   0  0  0  0  0  0  0  0  0  0  0  0
   52.2328   -3.5002   -8.0117 C   0  0  0  0  0  0  0  0  0  0  0  0
   51.3814   -3.7536   -6.9466 C   0  0  0  0  0  0  0  0  0  0  0  0
   51.6858   -4.5936   -5.9063 C   0  0  0  0  0  0  0  0  0  0  0  0
   52.9192   -5.2163   -5.9379 C   0  0  0  0  0  0  0  0  0  0  0  0
   53.7963   -4.9960   -6.9729 C   0  0  0  0  0  0  0  0  0  0  0  0
   53.4761   -4.1458   -8.0162 C   0  0  0  0  0  0  0  0  0  0  0  0
   50.7438   -4.8149   -4.8183 C   0  0  0  0  0  0  0  0  0  0  0  0
   50.9195   -5.7184   -3.7825 C   0  0  0  0  0  0  0  0  0  0  0  0
   49.8385   -5.6260   -2.9886 N   0  0  0  0  0  0  0  0  0  0  0  0
   48.9847   -4.7284   -3.4429 N   0  0  0  0  0  0  0  0  0  0  0  0
   49.5233   -4.2170   -4.5689 C   0  0  0  0  0  0  0  0  0  0  0  0
   48.0548   -4.4633   -3.0031 H   0  0  0  0  0  0  0  0  0  0  0  0
   59.2480   -5.6802   -9.3357 C   0  0  0  0  0  0  0  0  0  0  0  0
   60.1180   -5.9249  -10.4082 N   0  0  0  0  0  0  0  0  0  0  0  0
   59.6066   -5.8972   -8.1590 O   0  0  0  0  0  0  0  0  0  0  0  0
   61.1522   -5.7478  -10.3236 H   0  0  0  0  0  0  0  0  0  0  0  0
   59.8038   -6.2894  -11.3363 H   0  0  0  0  0  0  0  0  0  0  0  0
   58.0011   -5.0921  -11.9623 O   0  0  0  0  0  0  0  0  0  0  0  0
   58.4555   -2.7433  -11.8088 C   0  0  0  0  0  0  0  0  0  0  0  0
   58.5050   -4.0486  -12.6856 C   0  0  0  0  0  0  0  0  0  0  0  0
   58.0267   -3.7591  -14.0177 C   0  0  0  0  0  0  0  0  0  0  0  0
   56.6572   -3.8936  -14.3041 C   0  0  0  0  0  0  0  0  0  0  0  0
   56.1008   -3.6222  -15.5242 C   0  0  0  0  0  0  0  0  0  0  0  0
   56.9141   -3.1890  -16.5496 C   0  0  0  0  0  0  0  0  0  0  0  0
   58.2440   -3.0533  -16.2911 C   0  0  0  0  0  0  0  0  0  0  0  0
   58.8273   -3.3324  -15.0332 C   0  0  0  0  0  0  0  0  0  0  0  0
   60.2611   -3.1883  -14.8558 C   0  0  0  0  0  0  0  0  0  0  0  0
   60.8066   -2.8845  -16.1369 F   0  0  0  0  0  0  0  0  0  0  0  0
   60.6861   -2.1377  -14.0886 F   0  0  0  0  0  0  0  0  0  0  0  0
   60.9255   -4.3829  -14.6124 F   0  0  0  0  0  0  0  0  0  0  0  0
 27 28  1  0  0  0
 28 26  1  0  0  0
 26  1  1  0  0  0
  1  2  1  0  0  0
  2  3  2  0  0  0
  3  4  1  0  0  0
  4  5  1  0  0  0
  5 21  1  0  0  0
 21 22  1  0  0  0
 21 23  2  0  0  0
  3  6  1  0  0  0
  6  7  1  0  0  0
  7  8  2  0  0  0
  8  9  1  0  0  0
  9 10  2  0  0  0
 10 11  1  0  0  0
 11 12  2  0  0  0
 12 13  1  0  0  0
 13 14  2  0  0  0
 11 15  1  0  0  0
 15 16  1  0  0  0
 16 17  2  0  0  0
 17 18  1  0  0  0
 18 19  1  0  0  0
 28 29  1  0  0  0
 29 30  2  0  0  0
 30 31  1  0  0  0
 31 32  2  0  0  0
 32 33  1  0  0  0
 33 34  2  0  0  0
 34 35  1  0  0  0
 35 36  1  0  0  0
 35 37  1  0  0  0
 35 38  1  0  0  0
  5  1  2  0  0  0
 14  6  1  0  0  0
 19 15  2  0  0  0
 34 29  1  0  0  0
 14  9  1  0  0  0
 22 24  1  0  0  0
 22 25  1  0  0  0
 18 20  1  0  0  0
M  END
> <minimizedAffinity>
-8.30385

> <CNNscore>
0.5148449540

> <CNNaffinity>
7.1701917648

> <CNN_VS>
3.6915371418

> <CNNaffinity_variance>
0.1511634886

$$$$
[H]c1nn([H])c([H])c1-c1c([H])c([H])c2c(nc([H])n2-c2sc(C(=O)N([H])[H])c(O[C@@]([H])(c3c([H])c([H])c([H])c([H])c3C(F)(F)F)C([H])([H])[H])c2[H])c1[H]


 38 42  0  0  0  0  0  0  0  0999 V2000
   51.1785   -5.0269   -5.2530 C   0  0  0  0  0  0  0  0  0  0  0  0
   52.0533   -4.9713   -6.2540 C   0  0  0  0  0  0  0  0  0  0  0  0
   51.8953   -3.9809   -7.2003 C   0  0  0  0  0  0  0  0  0  0  0  0
   50.5126   -3.1563   -6.6474 S   0  0  0  0  0  0  0  0  0  0  0  0
   50.1717   -4.0685   -5.2539 C   0  0  0  0  0  0  0  0  0  0  0  0
   52.7228   -3.7430   -8.3520 N   0  0  0  0  0  0  0  0  0  0  0  0
   52.4571   -3.0931   -9.4890 C   0  0  0  0  0  0  0  0  0  0  0  0
   53.5340   -3.1126  -10.3042 N   0  0  0  0  0  0  0  0  0  0  0  0
   54.5022   -3.7783   -9.6926 C   0  0  0  0  0  0  0  0  0  0  0  0
   55.8092   -4.1363   -9.9878 C   0  0  0  0  0  0  0  0  0  0  0  0
   56.6164   -4.8529   -9.1419 C   0  0  0  0  0  0  0  0  0  0  0  0
   56.0783   -5.2326   -7.9268 C   0  0  0  0  0  0  0  0  0  0  0  0
   54.7876   -4.9008   -7.5903 C   0  0  0  0  0  0  0  0  0  0  0  0
   53.9843   -4.1773   -8.4536 C   0  0  0  0  0  0  0  0  0  0  0  0
   57.9814   -5.1952   -9.5154 C   0  0  0  0  0  0  0  0  0  0  0  0
   58.5172   -5.0643  -10.7865 C   0  0  0  0  0  0  0  0  0  0  0  0
   59.7935   -5.4819  -10.7233 N   0  0  0  0  0  0  0  0  0  0  0  0
   60.1115   -5.8703   -9.5030 N   0  0  0  0  0  0  0  0  0  0  0  0
   59.0096   -5.7017   -8.7436 C   0  0  0  0  0  0  0  0  0  0  0  0
   61.0544   -6.2427   -9.1854 H   0  0  0  0  0  0  0  0  0  0  0  0
   49.0781   -3.8673   -4.3076 C   0  0  0  0  0  0  0  0  0  0  0  0
   48.8479   -4.7873   -3.2745 N   0  0  0  0  0  0  0  0  0  0  0  0
   48.3533   -2.8585   -4.4390 O   0  0  0  0  0  0  0  0  0  0  0  0
   48.5193   -4.4717   -2.3255 H   0  0  0  0  0  0  0  0  0  0  0  0
   48.9841   -5.8187   -3.3774 H   0  0  0  0  0  0  0  0  0  0  0  0
   51.1726   -5.9646   -4.1881 O   0  0  0  0  0  0  0  0  0  0  0  0
   53.4101   -6.8098   -4.3494 C   0  0  0  0  0  0  0  0  0  0  0  0
   52.2908   -6.1875   -3.4357 C   0  0  0  0  0  0  0  0  0  0  0  0
   52.2226   -6.9113   -2.1872 C   0  0  0  0  0  0  0  0  0  0  0  0
   51.3957   -8.0437   -2.0897 C   0  0  0  0  0  0  0  0  0  0  0  0
   51.2787   -8.8104   -0.9626 C   0  0  0  0  0  0  0  0  0  0  0  0
   52.0071   -8.4701    0.1573 C   0  0  0  0  0  0  0  0  0  0  0  0
   52.8134   -7.3756    0.0819 C   0  0  0  0  0  0  0  0  0  0  0  0
   52.9396   -6.5773   -1.0788 C   0  0  0  0  0  0  0  0  0  0  0  0
   53.8014   -5.4090   -1.0597 C   0  0  0  0  0  0  0  0  0  0  0  0
   53.1195   -4.3819   -1.7746 F   0  0  0  0  0  0  0  0  0  0  0  0
   54.0296   -4.8295    0.1590 F   0  0  0  0  0  0  0  0  0  0  0  0
   54.9290   -5.5227   -1.8618 F   0  0  0  0  0  0  0  0  0  0  0  0
 27 28  1  0  0  0
 28 26  1  0  0  0
 26  1  1  0  0  0
  1  2  1  0  0  0
  2  3  2  0  0  0
  3  4  1  0  0  0
  4  5  1  0  0  0
  5 21  1  0  0  0
 21 22  1  0  0  0
 21 23  2  0  0  0
  3  6  1  0  0  0
  6  7  1  0  0  0
  7  8  2  0  0  0
  8  9  1  0  0  0
  9 10  2  0  0  0
 10 11  1  0  0  0
 11 12  2  0  0  0
 12 13  1  0  0  0
 13 14  2  0  0  0
 11 15  1  0  0  0
 15 16  1  0  0  0
 16 17  2  0  0  0
 17 18  1  0  0  0
 18 19  1  0  0  0
 28 29  1  0  0  0
 29 30  2  0  0  0
 30 31  1  0  0  0
 31 32  2  0  0  0
 32 33  1  0  0  0
 33 34  2  0  0  0
 34 35  1  0  0  0
 35 36  1  0  0  0
 35 37  1  0  0  0
 35 38  1  0  0  0
  5  1  2  0  0  0
 14  6  1  0  0  0
 19 15  2  0  0  0
 34 29  1  0  0  0
 14  9  1  0  0  0
 22 24  1  0  0  0
 22 25  1  0  0  0
 18 20  1  0  0  0
M  END
> <minimizedAffinity>
-9.84854

> <CNNscore>
0.4923187196

> <CNNaffinity>
7.6144247055

> <CNN_VS>
3.7487237453

> <CNNaffinity_variance>
0.2544271350

$$$$
[H]c1nn([H])c([H])c1-c1c([H])c([H])c2c(nc([H])n2-c2sc(C(=O)N([H])[H])c(O[C@@]([H])(c3c([H])c([H])c([H])c([H])c3C(F)(F)F)C([H])([H])[H])c2[H])c1[H]


 38 42  0  0  0  0  0  0  0  0999 V2000
   51.0473   -4.6996   -4.9339 C   0  0  0  0  0  0  0  0  0  0  0  0
   51.9407   -4.6462   -5.9185 C   0  0  0  0  0  0  0  0  0  0  0  0
   51.6678   -3.8353   -6.9998 C   0  0  0  0  0  0  0  0  0  0  0  0
   50.1540   -3.1714   -6.5932 S   0  0  0  0  0  0  0  0  0  0  0  0
   49.9052   -3.9226   -5.0886 C   0  0  0  0  0  0  0  0  0  0  0  0
   52.4922   -3.6323   -8.1604 N   0  0  0  0  0  0  0  0  0  0  0  0
   52.2253   -3.0116   -9.3133 C   0  0  0  0  0  0  0  0  0  0  0  0
   53.2990   -3.0582  -10.1316 N   0  0  0  0  0  0  0  0  0  0  0  0
   54.2662   -3.7122   -9.5061 C   0  0  0  0  0  0  0  0  0  0  0  0
   55.5703   -4.0844   -9.7964 C   0  0  0  0  0  0  0  0  0  0  0  0
   56.3772   -4.7822   -8.9347 C   0  0  0  0  0  0  0  0  0  0  0  0
   55.8418   -5.1267   -7.7079 C   0  0  0  0  0  0  0  0  0  0  0  0
   54.5541   -4.7796   -7.3757 C   0  0  0  0  0  0  0  0  0  0  0  0
   53.7511   -4.0755   -8.2550 C   0  0  0  0  0  0  0  0  0  0  0  0
   57.7391   -5.1411   -9.3039 C   0  0  0  0  0  0  0  0  0  0  0  0
   58.7246   -5.5481   -8.4189 C   0  0  0  0  0  0  0  0  0  0  0  0
   59.8328   -5.7858   -9.1420 N   0  0  0  0  0  0  0  0  0  0  0  0
   59.6260   -5.5598  -10.4254 N   0  0  0  0  0  0  0  0  0  0  0  0
   58.3428   -5.1620  -10.5467 C   0  0  0  0  0  0  0  0  0  0  0  0
   60.3360   -5.6713  -11.2078 H   0  0  0  0  0  0  0  0  0  0  0  0
   48.7582   -3.7672   -4.1986 C   0  0  0  0  0  0  0  0  0  0  0  0
   48.4917   -4.7181   -3.2027 N   0  0  0  0  0  0  0  0  0  0  0  0
   48.0207   -2.7696   -4.3442 O   0  0  0  0  0  0  0  0  0  0  0  0
   48.1058   -4.4336   -2.2656 H   0  0  0  0  0  0  0  0  0  0  0  0
   48.6547   -5.7436   -3.3237 H   0  0  0  0  0  0  0  0  0  0  0  0
   51.1457   -5.4684   -3.7454 O   0  0  0  0  0  0  0  0  0  0  0  0
   51.4271   -7.5617   -2.6115 C   0  0  0  0  0  0  0  0  0  0  0  0
   51.9932   -6.5365   -3.6619 C   0  0  0  0  0  0  0  0  0  0  0  0
   53.4107   -6.3544   -3.4501 C   0  0  0  0  0  0  0  0  0  0  0  0
   54.3177   -6.7991   -4.4274 C   0  0  0  0  0  0  0  0  0  0  0  0
   55.6749   -6.6536   -4.3339 C   0  0  0  0  0  0  0  0  0  0  0  0
   56.2070   -6.0360   -3.2222 C   0  0  0  0  0  0  0  0  0  0  0  0
   55.3438   -5.5990   -2.2643 C   0  0  0  0  0  0  0  0  0  0  0  0
   53.9399   -5.7461   -2.3527 C   0  0  0  0  0  0  0  0  0  0  0  0
   53.0963   -5.2763   -1.2685 C   0  0  0  0  0  0  0  0  0  0  0  0
   52.3089   -4.2096   -1.7912 F   0  0  0  0  0  0  0  0  0  0  0  0
   52.1518   -6.1479   -0.7983 F   0  0  0  0  0  0  0  0  0  0  0  0
   53.7788   -4.5805   -0.2794 F   0  0  0  0  0  0  0  0  0  0  0  0
 27 28  1  0  0  0
 28 26  1  0  0  0
 26  1  1  0  0  0
  1  2  1  0  0  0
  2  3  2  0  0  0
  3  4  1  0  0  0
  4  5  1  0  0  0
  5 21  1  0  0  0
 21 22  1  0  0  0
 21 23  2  0  0  0
  3  6  1  0  0  0
  6  7  1  0  0  0
  7  8  2  0  0  0
  8  9  1  0  0  0
  9 10  2  0  0  0
 10 11  1  0  0  0
 11 12  2  0  0  0
 12 13  1  0  0  0
 13 14  2  0  0  0
 11 15  1  0  0  0
 15 16  1  0  0  0
 16 17  2  0  0  0
 17 18  1  0  0  0
 18 19  1  0  0  0
 28 29  1  0  0  0
 29 30  2  0  0  0
 30 31  1  0  0  0
 31 32  2  0  0  0
 32 33  1  0  0  0
 33 34  2  0  0  0
 34 35  1  0  0  0
 35 36  1  0  0  0
 35 37  1  0  0  0
 35 38  1  0  0  0
  5  1  2  0  0  0
 14  6  1  0  0  0
 19 15  2  0  0  0
 34 29  1  0  0  0
 14  9  1  0  0  0
 22 24  1  0  0  0
 22 25  1  0  0  0
 18 20  1  0  0  0
M  END
> <minimizedAffinity>
-9.37872

> <CNNscore>
0.4652808905

> <CNNaffinity>
7.7893514633

> <CNN_VS>
3.6242363453

> <CNNaffinity_variance>
0.2053623646

$$$$
[H]c1nn([H])c([H])c1-c1c([H])c([H])c2c(nc([H])n2-c2sc(C(=O)N([H])[H])c(O[C@@]([H])(c3c([H])c([H])c([H])c([H])c3C(F)(F)F)C([H])([H])[H])c2[H])c1[H]


 38 42  0  0  0  0  0  0  0  0999 V2000
   53.2580   -4.3570   -7.4337 C   0  0  0  0  0  0  0  0  0  0  0  0
   54.3953   -4.6133   -8.0750 C   0  0  0  0  0  0  0  0  0  0  0  0
   54.5738   -4.0622   -9.3263 C   0  0  0  0  0  0  0  0  0  0  0  0
   53.1266   -3.1972   -9.5608 S   0  0  0  0  0  0  0  0  0  0  0  0
   52.3417   -3.5466   -8.0938 C   0  0  0  0  0  0  0  0  0  0  0  0
   55.7196   -4.2097  -10.1826 N   0  0  0  0  0  0  0  0  0  0  0  0
   55.8901   -3.8753  -11.4650 C   0  0  0  0  0  0  0  0  0  0  0  0
   57.1369   -4.1972  -11.8729 N   0  0  0  0  0  0  0  0  0  0  0  0
   57.7775   -4.7428  -10.8500 C   0  0  0  0  0  0  0  0  0  0  0  0
   59.0428   -5.2655  -10.6276 C   0  0  0  0  0  0  0  0  0  0  0  0
   59.4568   -5.7841   -9.4275 C   0  0  0  0  0  0  0  0  0  0  0  0
   58.5451   -5.7773   -8.3887 C   0  0  0  0  0  0  0  0  0  0  0  0
   57.2796   -5.2697   -8.5619 C   0  0  0  0  0  0  0  0  0  0  0  0
   56.8752   -4.7496   -9.7783 C   0  0  0  0  0  0  0  0  0  0  0  0
   60.8016   -6.3173   -9.2627 C   0  0  0  0  0  0  0  0  0  0  0  0
   61.3573   -6.7222   -8.0596 C   0  0  0  0  0  0  0  0  0  0  0  0
   62.6046   -7.1488   -8.3231 N   0  0  0  0  0  0  0  0  0  0  0  0
   62.8858   -7.0455   -9.6082 N   0  0  0  0  0  0  0  0  0  0  0  0
   61.7887   -6.5357  -10.2047 C   0  0  0  0  0  0  0  0  0  0  0  0
   63.8005   -7.3136  -10.0771 H   0  0  0  0  0  0  0  0  0  0  0  0
   51.0239   -3.0895   -7.6623 C   0  0  0  0  0  0  0  0  0  0  0  0
   50.7019   -1.7246   -7.6712 N   0  0  0  0  0  0  0  0  0  0  0  0
   50.1909   -3.9407   -7.2854 O   0  0  0  0  0  0  0  0  0  0  0  0
   49.7336   -1.3937   -7.9180 H   0  0  0  0  0  0  0  0  0  0  0  0
   51.3847   -0.9676   -7.4394 H   0  0  0  0  0  0  0  0  0  0  0  0
   52.8901   -4.8273   -6.1465 O   0  0  0  0  0  0  0  0  0  0  0  0
   53.9836   -6.9414   -5.8614 C   0  0  0  0  0  0  0  0  0  0  0  0
   53.7902   -5.4685   -5.3437 C   0  0  0  0  0  0  0  0  0  0  0  0
   53.6436   -5.4725   -3.9064 C   0  0  0  0  0  0  0  0  0  0  0  0
   54.7906   -5.4298   -3.0952 C   0  0  0  0  0  0  0  0  0  0  0  0
   54.7595   -5.4061   -1.7276 C   0  0  0  0  0  0  0  0  0  0  0  0
   53.5399   -5.4244   -1.0851 C   0  0  0  0  0  0  0  0  0  0  0  0
   52.4175   -5.4664   -1.8546 C   0  0  0  0  0  0  0  0  0  0  0  0
   52.4407   -5.4919   -3.2685 C   0  0  0  0  0  0  0  0  0  0  0  0
   51.1938   -5.5668   -4.0085 C   0  0  0  0  0  0  0  0  0  0  0  0
   50.1707   -5.8677   -3.0631 F   0  0  0  0  0  0  0  0  0  0  0  0
   50.7451   -4.4081   -4.5820 F   0  0  0  0  0  0  0  0  0  0  0  0
   51.0811   -6.6894   -4.8180 F   0  0  0  0  0  0  0  0  0  0  0  0
 27 28  1  0  0  0
 28 26  1  0  0  0
 26  1  1  0  0  0
  1  2  1  0  0  0
  2  3  2  0  0  0
  3  4  1  0  0  0
  4  5  1  0  0  0
  5 21  1  0  0  0
 21 22  1  0  0  0
 21 23  2  0  0  0
  3  6  1  0  0  0
  6  7  1  0  0  0
  7  8  2  0  0  0
  8  9  1  0  0  0
  9 10  2  0  0  0
 10 11  1  0  0  0
 11 12  2  0  0  0
 12 13  1  0  0  0
 13 14  2  0  0  0
 11 15  1  0  0  0
 15 16  1  0  0  0
 16 17  2  0  0  0
 17 18  1  0  0  0
 18 19  1  0  0  0
 28 29  1  0  0  0
 29 30  2  0  0  0
 30 31  1  0  0  0
 31 32  2  0  0  0
 32 33  1  0  0  0
 33 34  2  0  0  0
 34 35  1  0  0  0
 35 36  1  0  0  0
 35 37  1  0  0  0
 35 38  1  0  0  0
  5  1  2  0  0  0
 14  6  1  0  0  0
 19 15  2  0  0  0
 34 29  1  0  0  0
 14  9  1  0  0  0
 22 24  1  0  0  0
 22 25  1  0  0  0
 18 20  1  0  0  0
M  END
> <minimizedAffinity>
-9.20898

> <CNNscore>
0.3828194439

> <CNNaffinity>
7.3865966797

> <CNN_VS>
2.8277328014

> <CNNaffinity_variance>
0.2030858099

$$$$
[H]c1nn([H])c([H])c1-c1c([H])c([H])c2c(nc([H])n2-c2sc(C(=O)N([H])[H])c(O[C@@]([H])(c3c([H])c([H])c([H])c([H])c3C(F)(F)F)C([H])([H])[H])c2[H])c1[H]


 38 42  0  0  0  0  0  0  0  0999 V2000
   58.7941   -5.3782  -10.4654 C   0  0  0  0  0  0  0  0  0  0  0  0
   57.7098   -5.2741   -9.7013 C   0  0  0  0  0  0  0  0  0  0  0  0
   57.8149   -5.6286   -8.3729 C   0  0  0  0  0  0  0  0  0  0  0  0
   59.4454   -6.1001   -8.2425 S   0  0  0  0  0  0  0  0  0  0  0  0
   59.9486   -5.8418   -9.8456 C   0  0  0  0  0  0  0  0  0  0  0  0
   56.7746   -5.5899   -7.3809 N   0  0  0  0  0  0  0  0  0  0  0  0
   56.7568   -6.0525   -6.1274 C   0  0  0  0  0  0  0  0  0  0  0  0
   55.5629   -5.7979   -5.5493 N   0  0  0  0  0  0  0  0  0  0  0  0
   54.8033   -5.1672   -6.4325 C   0  0  0  0  0  0  0  0  0  0  0  0
   53.5164   -4.6506   -6.4549 C   0  0  0  0  0  0  0  0  0  0  0  0
   52.9617   -4.0242   -7.5416 C   0  0  0  0  0  0  0  0  0  0  0  0
   53.7469   -3.9102   -8.6732 C   0  0  0  0  0  0  0  0  0  0  0  0
   55.0282   -4.4070   -8.6979 C   0  0  0  0  0  0  0  0  0  0  0  0
   55.5751   -5.0367   -7.5942 C   0  0  0  0  0  0  0  0  0  0  0  0
   51.6026   -3.5040   -7.4969 C   0  0  0  0  0  0  0  0  0  0  0  0
   50.5063   -4.1796   -6.9852 C   0  0  0  0  0  0  0  0  0  0  0  0
   49.4418   -3.3705   -7.1250 N   0  0  0  0  0  0  0  0  0  0  0  0
   49.7793   -2.2265   -7.6893 N   0  0  0  0  0  0  0  0  0  0  0  0
   51.1057   -2.2882   -7.9262 C   0  0  0  0  0  0  0  0  0  0  0  0
   49.1285   -1.4168   -7.9116 H   0  0  0  0  0  0  0  0  0  0  0  0
   61.2795   -6.0629  -10.4039 C   0  0  0  0  0  0  0  0  0  0  0  0
   62.3645   -6.3652   -9.5683 N   0  0  0  0  0  0  0  0  0  0  0  0
   61.4296   -5.9768  -11.6410 O   0  0  0  0  0  0  0  0  0  0  0  0
   63.1182   -7.0341   -9.8726 H   0  0  0  0  0  0  0  0  0  0  0  0
   62.4915   -5.9565   -8.6145 H   0  0  0  0  0  0  0  0  0  0  0  0
   58.8876   -5.0631  -11.8457 O   0  0  0  0  0  0  0  0  0  0  0  0
   57.2814   -3.3317  -11.4345 C   0  0  0  0  0  0  0  0  0  0  0  0
   58.4676   -3.8551  -12.3256 C   0  0  0  0  0  0  0  0  0  0  0  0
   58.1447   -3.6740  -13.7221 C   0  0  0  0  0  0  0  0  0  0  0  0
   56.8099   -3.7997  -14.1442 C   0  0  0  0  0  0  0  0  0  0  0  0
   56.3968   -3.6246  -15.4367 C   0  0  0  0  0  0  0  0  0  0  0  0
   57.3295   -3.3048  -16.4002 C   0  0  0  0  0  0  0  0  0  0  0  0
   58.6279   -3.1794  -16.0102 C   0  0  0  0  0  0  0  0  0  0  0  0
   59.0634   -3.3594  -14.6766 C   0  0  0  0  0  0  0  0  0  0  0  0
   60.4741   -3.2354  -14.3562 C   0  0  0  0  0  0  0  0  0  0  0  0
   60.5774   -2.2635  -13.3190 F   0  0  0  0  0  0  0  0  0  0  0  0
   61.0813   -4.3315  -13.8059 F   0  0  0  0  0  0  0  0  0  0  0  0
   61.2235   -2.5936  -15.3332 F   0  0  0  0  0  0  0  0  0  0  0  0
 27 28  1  0  0  0
 28 26  1  0  0  0
 26  1  1  0  0  0
  1  2  1  0  0  0
  2  3  2  0  0  0
  3  4  1  0  0  0
  4  5  1  0  0  0
  5 21  1  0  0  0
 21 22  1  0  0  0
 21 23  2  0  0  0
  3  6  1  0  0  0
  6  7  1  0  0  0
  7  8  2  0  0  0
  8  9  1  0  0  0
  9 10  2  0  0  0
 10 11  1  0  0  0
 11 12  2  0  0  0
 12 13  1  0  0  0
 13 14  2  0  0  0
 11 15  1  0  0  0
 15 16  1  0  0  0
 16 17  2  0  0  0
 17 18  1  0  0  0
 18 19  1  0  0  0
 28 29  1  0  0  0
 29 30  2  0  0  0
 30 31  1  0  0  0
 31 32  2  0  0  0
 32 33  1  0  0  0
 33 34  2  0  0  0
 34 35  1  0  0  0
 35 36  1  0  0  0
 35 37  1  0  0  0
 35 38  1  0  0  0
  5  1  2  0  0  0
 14  6  1  0  0  0
 19 15  2  0  0  0
 34 29  1  0  0  0
 14  9  1  0  0  0
 22 24  1  0  0  0
 22 25  1  0  0  0
 18 20  1  0  0  0
M  END
> <minimizedAffinity>
-7.30201

> <CNNscore>
0.3578555882

> <CNNaffinity>
6.9907135963

> <CNN_VS>
2.5016658306

> <CNNaffinity_variance>
0.1322923750

$$$$
[H]c1nn([H])c([H])c1-c1c([H])c([H])c2c(nc([H])n2-c2sc(C(=O)N([H])[H])c(O[C@@]([H])(c3c([H])c([H])c([H])c([H])c3C(F)(F)F)C([H])([H])[H])c2[H])c1[H]


 38 42  0  0  0  0  0  0  0  0999 V2000
   59.1392   -5.0422  -11.0105 C   0  0  0  0  0  0  0  0  0  0  0  0
   58.0771   -5.1086  -10.2118 C   0  0  0  0  0  0  0  0  0  0  0  0
   56.9594   -4.3777  -10.5554 C   0  0  0  0  0  0  0  0  0  0  0  0
   57.4431   -3.6164  -11.9991 S   0  0  0  0  0  0  0  0  0  0  0  0
   59.0227   -4.2305  -12.1329 C   0  0  0  0  0  0  0  0  0  0  0  0
   55.7146   -4.3099   -9.8388 N   0  0  0  0  0  0  0  0  0  0  0  0
   54.5103   -3.8874  -10.2347 C   0  0  0  0  0  0  0  0  0  0  0  0
   53.6178   -4.0008   -9.2272 N   0  0  0  0  0  0  0  0  0  0  0  0
   54.2466   -4.4991   -8.1733 C   0  0  0  0  0  0  0  0  0  0  0  0
   53.9022   -4.8417   -6.8743 C   0  0  0  0  0  0  0  0  0  0  0  0
   54.7841   -5.3565   -5.9588 C   0  0  0  0  0  0  0  0  0  0  0  0
   56.0900   -5.5379   -6.3734 C   0  0  0  0  0  0  0  0  0  0  0  0
   56.4780   -5.2129   -7.6512 C   0  0  0  0  0  0  0  0  0  0  0  0
   55.5776   -4.6943   -8.5645 C   0  0  0  0  0  0  0  0  0  0  0  0
   54.3549   -5.6951   -4.6094 C   0  0  0  0  0  0  0  0  0  0  0  0
   53.0984   -6.1686   -4.2672 C   0  0  0  0  0  0  0  0  0  0  0  0
   53.0961   -6.3601   -2.9365 N   0  0  0  0  0  0  0  0  0  0  0  0
   54.2609   -6.0428   -2.4040 N   0  0  0  0  0  0  0  0  0  0  0  0
   55.0505   -5.6310   -3.4171 C   0  0  0  0  0  0  0  0  0  0  0  0
   54.5214   -6.1022   -1.3758 H   0  0  0  0  0  0  0  0  0  0  0  0
   59.9959   -3.9530  -13.1853 C   0  0  0  0  0  0  0  0  0  0  0  0
   59.8168   -2.8695  -14.0575 N   0  0  0  0  0  0  0  0  0  0  0  0
   60.9904   -4.7014  -13.2909 O   0  0  0  0  0  0  0  0  0  0  0  0
   60.6362   -2.3086  -14.4069 H   0  0  0  0  0  0  0  0  0  0  0  0
   58.8826   -2.5573  -14.4079 H   0  0  0  0  0  0  0  0  0  0  0  0
   60.3745   -5.7167  -10.8303 O   0  0  0  0  0  0  0  0  0  0  0  0
   59.8035   -5.8057   -8.5037 C   0  0  0  0  0  0  0  0  0  0  0  0
   60.6368   -6.4194   -9.6887 C   0  0  0  0  0  0  0  0  0  0  0  0
   61.9926   -6.6659   -9.2545 C   0  0  0  0  0  0  0  0  0  0  0  0
   62.5252   -5.9143   -8.1929 C   0  0  0  0  0  0  0  0  0  0  0  0
   63.7867   -6.0858   -7.6919 C   0  0  0  0  0  0  0  0  0  0  0  0
   64.6023   -7.0487   -8.2468 C   0  0  0  0  0  0  0  0  0  0  0  0
   64.1038   -7.7865   -9.2768 C   0  0  0  0  0  0  0  0  0  0  0  0
   62.8014   -7.6152   -9.8011 C   0  0  0  0  0  0  0  0  0  0  0  0
   62.3632   -8.4273  -10.9220 C   0  0  0  0  0  0  0  0  0  0  0  0
   63.3801   -9.3997  -11.1491 F   0  0  0  0  0  0  0  0  0  0  0  0
   61.2471   -9.1955  -10.7294 F   0  0  0  0  0  0  0  0  0  0  0  0
   62.4069   -7.7746  -12.1468 F   0  0  0  0  0  0  0  0  0  0  0  0
 27 28  1  0  0  0
 28 26  1  0  0  0
 26  1  1  0  0  0
  1  2  1  0  0  0
  2  3  2  0  0  0
  3  4  1  0  0  0
  4  5  1  0  0  0
  5 21  1  0  0  0
 21 22  1  0  0  0
 21 23  2  0  0  0
  3  6  1  0  0  0
  6  7  1  0  0  0
  7  8  2  0  0  0
  8  9  1  0  0  0
  9 10  2  0  0  0
 10 11  1  0  0  0
 11 12  2  0  0  0
 12 13  1  0  0  0
 13 14  2  0  0  0
 11 15  1  0  0  0
 15 16  1  0  0  0
 16 17  2  0  0  0
 17 18  1  0  0  0
 18 19  1  0  0  0
 28 29  1  0  0  0
 29 30  2  0  0  0
 30 31  1  0  0  0
 31 32  2  0  0  0
 32 33  1  0  0  0
 33 34  2  0  0  0
 34 35  1  0  0  0
 35 36  1  0  0  0
 35 37  1  0  0  0
 35 38  1  0  0  0
  5  1  2  0  0  0
 14  6  1  0  0  0
 19 15  2  0  0  0
 34 29  1  0  0  0
 14  9  1  0  0  0
 22 24  1  0  0  0
 22 25  1  0  0  0
 18 20  1  0  0  0
M  END
> <minimizedAffinity>
-7.40367

> <CNNscore>
0.2913624644

> <CNNaffinity>
6.5854468346

> <CNN_VS>
1.9187520742

> <CNNaffinity_variance>
0.1570235491

$$$$
[H]/C(=C1\C(=O)N([H])c2c([H])c([H])c(S(=O)(=O)C([H])([H])[H])c([H])c21)c1nc([H])c([H])n1[H]


 22 24  0  0  0  0  0  0  0  0999 V2000
   50.7532   -4.6295   -4.7426 C   0  0  0  0  0  0  0  0  0  0  0  0
   49.7213   -3.8102   -5.1329 C   0  0  0  0  0  0  0  0  0  0  0  0
   49.7193   -3.1142   -6.3003 C   0  0  0  0  0  0  0  0  0  0  0  0
   50.7910   -3.2096   -7.1653 C   0  0  0  0  0  0  0  0  0  0  0  0
   51.0458   -2.5891   -8.4178 N   0  0  0  0  0  0  0  0  0  0  0  0
   52.3031   -3.0350   -8.8531 C   0  0  0  0  0  0  0  0  0  0  0  0
   52.8936   -2.7241   -9.9078 O   0  0  0  0  0  0  0  0  0  0  0  0
   52.8707   -3.9689   -7.8515 C   0  0  0  0  0  0  0  0  0  0  0  0
   54.0227   -4.5523   -7.9017 C   0  0  0  0  0  0  0  0  0  0  0  0
   51.8582   -4.0363   -6.7984 C   0  0  0  0  0  0  0  0  0  0  0  0
   51.8395   -4.7313   -5.6101 C   0  0  0  0  0  0  0  0  0  0  0  0
   50.3978   -1.9329   -8.8901 H   0  0  0  0  0  0  0  0  0  0  0  0
   54.5541   -5.4579   -6.9346 C   0  0  0  0  0  0  0  0  0  0  0  0
   55.5106   -5.1930   -6.0330 N   0  0  0  0  0  0  0  0  0  0  0  0
   55.8327   -6.3067   -5.3483 C   0  0  0  0  0  0  0  0  0  0  0  0
   55.0449   -7.3096   -5.8418 C   0  0  0  0  0  0  0  0  0  0  0  0
   54.2828   -6.7794   -6.7950 N   0  0  0  0  0  0  0  0  0  0  0  0
   53.5808   -7.3076   -7.3505 H   0  0  0  0  0  0  0  0  0  0  0  0
   51.9442   -4.8935   -2.1004 C   0  0  0  0  0  0  0  0  0  0  0  0
   50.6927   -5.5063   -3.2149 S   0  0  0  0  0  0  0  0  0  0  0  0
   51.0316   -6.9687   -3.4738 O   0  0  0  0  0  0  0  0  0  0  0  0
   49.3461   -5.4642   -2.5909 O   0  0  0  0  0  0  0  0  0  0  0  0
 19 20  1  0  0  0
 20 21  2  0  0  0
 20 22  2  0  0  0
 20  1  1  0  0  0
  1  2  2  0  0  0
  2  3  1  0  0  0
  3  4  2  0  0  0
  4  5  1  0  0  0
  5  6  1  0  0  0
  6  7  2  0  0  0
  6  8  1  0  0  0
  8  9  2  0  0  0
  9 13  1  0  0  0
 13 14  2  0  0  0
 14 15  1  0  0  0
 15 16  2  0  0  0
 16 17  1  0  0  0
  8 10  1  0  0  0
 10 11  2  0  0  0
 11  1  1  0  0  0
 10  4  1  0  0  0
 17 13  1  0  0  0
  5 12  1  0  0  0
 17 18  1  0  0  0
M  END
> <minimizedAffinity>
-8.43841

> <CNNscore>
0.7455493808

> <CNNaffinity>
6.5380334854

> <CNN_VS>
4.8744268417

> <CNNaffinity_variance>
0.2978526950

$$$$
[H]/C(=C1\C(=O)N([H])c2c([H])c([H])c(S(=O)(=O)C([H])([H])[H])c([H])c21)c1nc([H])c([H])n1[H]


 22 24  0  0  0  0  0  0  0  0999 V2000
   55.6223   -5.8522   -5.9898 C   0  0  0  0  0  0  0  0  0  0  0  0
   56.6613   -5.5091   -6.8212 C   0  0  0  0  0  0  0  0  0  0  0  0
   56.5064   -4.7494   -7.9375 C   0  0  0  0  0  0  0  0  0  0  0  0
   55.2566   -4.2790   -8.2872 C   0  0  0  0  0  0  0  0  0  0  0  0
   54.8223   -3.4935   -9.3887 N   0  0  0  0  0  0  0  0  0  0  0  0
   53.4360   -3.3228   -9.2552 C   0  0  0  0  0  0  0  0  0  0  0  0
   52.6732   -2.6948  -10.0177 O   0  0  0  0  0  0  0  0  0  0  0  0
   52.9675   -4.0179   -8.0325 C   0  0  0  0  0  0  0  0  0  0  0  0
   51.7502   -4.1006   -7.6067 C   0  0  0  0  0  0  0  0  0  0  0  0
   54.1769   -4.6094   -7.4612 C   0  0  0  0  0  0  0  0  0  0  0  0
   54.3567   -5.3815   -6.3357 C   0  0  0  0  0  0  0  0  0  0  0  0
   55.4455   -3.1327  -10.1337 H   0  0  0  0  0  0  0  0  0  0  0  0
   51.3130   -4.7654   -6.4214 C   0  0  0  0  0  0  0  0  0  0  0  0
   50.8247   -4.1866   -5.3148 N   0  0  0  0  0  0  0  0  0  0  0  0
   50.6055   -5.1093   -4.3592 C   0  0  0  0  0  0  0  0  0  0  0  0
   50.9716   -6.3153   -4.8900 C   0  0  0  0  0  0  0  0  0  0  0  0
   51.3943   -6.0876   -6.1309 N   0  0  0  0  0  0  0  0  0  0  0  0
   51.7371   -6.8227   -6.7811 H   0  0  0  0  0  0  0  0  0  0  0  0
   55.4970   -5.9127   -3.0829 C   0  0  0  0  0  0  0  0  0  0  0  0
   55.8913   -6.8403   -4.5552 S   0  0  0  0  0  0  0  0  0  0  0  0
   57.3738   -7.1780   -4.4620 O   0  0  0  0  0  0  0  0  0  0  0  0
   55.1438   -8.1223   -4.6024 O   0  0  0  0  0  0  0  0  0  0  0  0
 19 20  1  0  0  0
 20 21  2  0  0  0
 20 22  2  0  0  0
 20  1  1  0  0  0
  1  2  2  0  0  0
  2  3  1  0  0  0
  3  4  2  0  0  0
  4  5  1  0  0  0
  5  6  1  0  0  0
  6  7  2  0  0  0
  6  8  1  0  0  0
  8  9  2  0  0  0
  9 13  1  0  0  0
 13 14  2  0  0  0
 14 15  1  0  0  0
 15 16  2  0  0  0
 16 17  1  0  0  0
  8 10  1  0  0  0
 10 11  2  0  0  0
 11  1  1  0  0  0
 10  4  1  0  0  0
 17 13  1  0  0  0
  5 12  1  0  0  0
 17 18  1  0  0  0
M  END
> <minimizedAffinity>
-7.74719

> <CNNscore>
0.6016805172

> <CNNaffinity>
6.1371474266

> <CNN_VS>
3.6926019192

> <CNNaffinity_variance>
0.1413775831

$$$$
[H]/C(=C1\C(=O)N([H])c2c([H])c([H])c(S(=O)(=O)C([H])([H])[H])c([H])c21)c1nc([H])c([H])n1[H]


 22 24  0  0  0  0  0  0  0  0999 V2000
   62.3961   -8.3155   -8.7106 C   0  0  0  0  0  0  0  0  0  0  0  0
   61.9000   -9.3995   -9.3943 C   0  0  0  0  0  0  0  0  0  0  0  0
   62.0710  -10.6842   -8.9851 C   0  0  0  0  0  0  0  0  0  0  0  0
   62.7730  -10.9547   -7.8276 C   0  0  0  0  0  0  0  0  0  0  0  0
   63.1048  -12.1829   -7.1950 N   0  0  0  0  0  0  0  0  0  0  0  0
   63.8488  -11.8703   -6.0471 C   0  0  0  0  0  0  0  0  0  0  0  0
   64.3310  -12.6675   -5.2166 O   0  0  0  0  0  0  0  0  0  0  0  0
   63.9979  -10.3994   -5.9397 C   0  0  0  0  0  0  0  0  0  0  0  0
   64.6453   -9.7507   -5.0286 C   0  0  0  0  0  0  0  0  0  0  0  0
   63.2908   -9.8733   -7.1068 C   0  0  0  0  0  0  0  0  0  0  0  0
   63.1065   -8.5798   -7.5408 C   0  0  0  0  0  0  0  0  0  0  0  0
   62.8301  -13.1176   -7.5481 H   0  0  0  0  0  0  0  0  0  0  0  0
   64.7733   -8.3323   -4.9309 C   0  0  0  0  0  0  0  0  0  0  0  0
   63.9091   -7.4907   -4.3454 N   0  0  0  0  0  0  0  0  0  0  0  0
   64.2994   -6.2149   -4.5263 C   0  0  0  0  0  0  0  0  0  0  0  0
   65.4557   -6.2603   -5.2550 C   0  0  0  0  0  0  0  0  0  0  0  0
   65.7244   -7.5424   -5.4884 N   0  0  0  0  0  0  0  0  0  0  0  0
   66.5478   -7.8844   -6.0227 H   0  0  0  0  0  0  0  0  0  0  0  0
   60.4378   -6.1894   -9.0482 C   0  0  0  0  0  0  0  0  0  0  0  0
   62.1374   -6.6730   -9.2953 S   0  0  0  0  0  0  0  0  0  0  0  0
   62.3746   -6.6439  -10.7997 O   0  0  0  0  0  0  0  0  0  0  0  0
   63.0718   -5.6985   -8.6774 O   0  0  0  0  0  0  0  0  0  0  0  0
 19 20  1  0  0  0
 20 21  2  0  0  0
 20 22  2  0  0  0
 20  1  1  0  0  0
  1  2  2  0  0  0
  2  3  1  0  0  0
  3  4  2  0  0  0
  4  5  1  0  0  0
  5  6  1  0  0  0
  6  7  2  0  0  0
  6  8  1  0  0  0
  8  9  2  0  0  0
  9 13  1  0  0  0
 13 14  2  0  0  0
 14 15  1  0  0  0
 15 16  2  0  0  0
 16 17  1  0  0  0
  8 10  1  0  0  0
 10 11  2  0  0  0
 11  1  1  0  0  0
 10  4  1  0  0  0
 17 13  1  0  0  0
  5 12  1  0  0  0
 17 18  1  0  0  0
M  END
> <minimizedAffinity>
-2.70368

> <CNNscore>
0.5411124229

> <CNNaffinity>
4.2070741653

> <CNN_VS>
2.2764999866

> <CNNaffinity_variance>
0.2648335397

$$$$
[H]/C(=C1\C(=O)N([H])c2c([H])c([H])c(S(=O)(=O)C([H])([H])[H])c([H])c21)c1nc([H])c([H])n1[H]


 22 24  0  0  0  0  0  0  0  0999 V2000
   52.0037   -4.3698   -6.8255 C   0  0  0  0  0  0  0  0  0  0  0  0
   51.6986   -3.5290   -7.8688 C   0  0  0  0  0  0  0  0  0  0  0  0
   52.5953   -3.1656   -8.8233 C   0  0  0  0  0  0  0  0  0  0  0  0
   53.8889   -3.6452   -8.7769 C   0  0  0  0  0  0  0  0  0  0  0  0
   55.0074   -3.4155   -9.6225 N   0  0  0  0  0  0  0  0  0  0  0  0
   56.0825   -4.1476   -9.0959 C   0  0  0  0  0  0  0  0  0  0  0  0
   57.2454   -4.2141   -9.5442 O   0  0  0  0  0  0  0  0  0  0  0  0
   55.6409   -4.8683   -7.8781 C   0  0  0  0  0  0  0  0  0  0  0  0
   56.3670   -5.6161   -7.1143 C   0  0  0  0  0  0  0  0  0  0  0  0
   54.2324   -4.5046   -7.7277 C   0  0  0  0  0  0  0  0  0  0  0  0
   53.3079   -4.8586   -6.7709 C   0  0  0  0  0  0  0  0  0  0  0  0
   54.9924   -2.8109  -10.4638 H   0  0  0  0  0  0  0  0  0  0  0  0
   55.9270   -6.3131   -5.9488 C   0  0  0  0  0  0  0  0  0  0  0  0
   55.3626   -7.5288   -5.9104 N   0  0  0  0  0  0  0  0  0  0  0  0
   54.9849   -7.8324   -4.6543 C   0  0  0  0  0  0  0  0  0  0  0  0
   55.3274   -6.7625   -3.8745 C   0  0  0  0  0  0  0  0  0  0  0  0
   55.8928   -5.8591   -4.6712 N   0  0  0  0  0  0  0  0  0  0  0  0
   56.2551   -4.9379   -4.3541 H   0  0  0  0  0  0  0  0  0  0  0  0
   51.5800   -5.4717   -4.1655 C   0  0  0  0  0  0  0  0  0  0  0  0
   50.7927   -4.8033   -5.6205 S   0  0  0  0  0  0  0  0  0  0  0  0
   49.9179   -5.9171   -6.1815 O   0  0  0  0  0  0  0  0  0  0  0  0
   49.9018   -3.6658   -5.2785 O   0  0  0  0  0  0  0  0  0  0  0  0
 19 20  1  0  0  0
 20 21  2  0  0  0
 20 22  2  0  0  0
 20  1  1  0  0  0
  1  2  2  0  0  0
  2  3  1  0  0  0
  3  4  2  0  0  0
  4  5  1  0  0  0
  5  6  1  0  0  0
  6  7  2  0  0  0
  6  8  1  0  0  0
  8  9  2  0  0  0
  9 13  1  0  0  0
 13 14  2  0  0  0
 14 15  1  0  0  0
 15 16  2  0  0  0
 16 17  1  0  0  0
  8 10  1  0  0  0
 10 11  2  0  0  0
 11  1  1  0  0  0
 10  4  1  0  0  0
 17 13  1  0  0  0
  5 12  1  0  0  0
 17 18  1  0  0  0
M  END
> <minimizedAffinity>
-8.00440

> <CNNscore>
0.5108526945

> <CNNaffinity>
6.1381998062

> <CNN_VS>
3.1357159615

> <CNNaffinity_variance>
0.2039045841

$$$$
[H]/C(=C1\C(=O)N([H])c2c([H])c([H])c(S(=O)(=O)C([H])([H])[H])c([H])c21)c1nc([H])c([H])n1[H]


 22 24  0  0  0  0  0  0  0  0999 V2000
   55.0133   -4.1594   -8.7519 C   0  0  0  0  0  0  0  0  0  0  0  0
   55.3512   -4.4882   -7.4611 C   0  0  0  0  0  0  0  0  0  0  0  0
   56.5639   -4.9920   -7.1106 C   0  0  0  0  0  0  0  0  0  0  0  0
   57.5325   -5.1980   -8.0724 C   0  0  0  0  0  0  0  0  0  0  0  0
   58.8521   -5.7169   -7.9813 N   0  0  0  0  0  0  0  0  0  0  0  0
   59.3873   -5.7187   -9.2784 C   0  0  0  0  0  0  0  0  0  0  0  0
   60.5231   -6.0994   -9.6286 O   0  0  0  0  0  0  0  0  0  0  0  0
   58.3827   -5.1847  -10.2288 C   0  0  0  0  0  0  0  0  0  0  0  0
   58.5136   -5.0660  -11.5089 C   0  0  0  0  0  0  0  0  0  0  0  0
   57.2211   -4.8726   -9.3969 C   0  0  0  0  0  0  0  0  0  0  0  0
   55.9855   -4.3645   -9.7295 C   0  0  0  0  0  0  0  0  0  0  0  0
   59.3008   -6.0273   -7.1005 H   0  0  0  0  0  0  0  0  0  0  0  0
   57.5414   -4.5407  -12.4126 C   0  0  0  0  0  0  0  0  0  0  0  0
   56.9045   -5.2148  -13.3811 N   0  0  0  0  0  0  0  0  0  0  0  0
   56.1300   -4.3823  -14.1021 C   0  0  0  0  0  0  0  0  0  0  0  0
   56.2889   -3.1360  -13.5623 C   0  0  0  0  0  0  0  0  0  0  0  0
   57.1414   -3.2518  -12.5473 N   0  0  0  0  0  0  0  0  0  0  0  0
   57.4530   -2.4632  -11.9462 H   0  0  0  0  0  0  0  0  0  0  0  0
   53.2897   -1.8214   -8.5727 C   0  0  0  0  0  0  0  0  0  0  0  0
   53.4220   -3.5081   -9.1395 S   0  0  0  0  0  0  0  0  0  0  0  0
   52.3679   -4.2987   -8.3752 O   0  0  0  0  0  0  0  0  0  0  0  0
   53.1017   -3.6189  -10.5851 O   0  0  0  0  0  0  0  0  0  0  0  0
 19 20  1  0  0  0
 20 21  2  0  0  0
 20 22  2  0  0  0
 20  1  1  0  0  0
  1  2  2  0  0  0
  2  3  1  0  0  0
  3  4  2  0  0  0
  4  5  1  0  0  0
  5  6  1  0  0  0
  6  7  2  0  0  0
  6  8  1  0  0  0
  8  9  2  0  0  0
  9 13  1  0  0  0
 13 14  2  0  0  0
 14 15  1  0  0  0
 15 16  2  0  0  0
 16 17  1  0  0  0
  8 10  1  0  0  0
 10 11  2  0  0  0
 11  1  1  0  0  0
 10  4  1  0  0  0
 17 13  1  0  0  0
  5 12  1  0  0  0
 17 18  1  0  0  0
M  END
> <minimizedAffinity>
-6.30796

> <CNNscore>
0.4695942998

> <CNNaffinity>
5.2275967598

> <CNN_VS>
2.4548497200

> <CNNaffinity_variance>
0.1891646087

$$$$
[H]/C(=C1\C(=O)N([H])c2c([H])c([H])c(S(=O)(=O)C([H])([H])[H])c([H])c21)c1nc([H])c([H])n1[H]


 22 24  0  0  0  0  0  0  0  0999 V2000
   52.6112   -4.7152   -6.6907 C   0  0  0  0  0  0  0  0  0  0  0  0
   52.1908   -3.8872   -7.7038 C   0  0  0  0  0  0  0  0  0  0  0  0
   51.0466   -3.1560   -7.6460 C   0  0  0  0  0  0  0  0  0  0  0  0
   50.2386   -3.2214   -6.5286 C   0  0  0  0  0  0  0  0  0  0  0  0
   49.0054   -2.5858   -6.2220 N   0  0  0  0  0  0  0  0  0  0  0  0
   48.6172   -3.0267   -4.9477 C   0  0  0  0  0  0  0  0  0  0  0  0
   47.5909   -2.7046   -4.3148 O   0  0  0  0  0  0  0  0  0  0  0  0
   49.6309   -3.9716   -4.4213 C   0  0  0  0  0  0  0  0  0  0  0  0
   49.5924   -4.5993   -3.2924 C   0  0  0  0  0  0  0  0  0  0  0  0
   50.6383   -4.0544   -5.4782 C   0  0  0  0  0  0  0  0  0  0  0  0
   51.8010   -4.7872   -5.5588 C   0  0  0  0  0  0  0  0  0  0  0  0
   48.5138   -1.9248   -6.8507 H   0  0  0  0  0  0  0  0  0  0  0  0
   50.5807   -5.5000   -2.7922 C   0  0  0  0  0  0  0  0  0  0  0  0
   50.5512   -6.8386   -2.8646 N   0  0  0  0  0  0  0  0  0  0  0  0
   51.5979   -7.3683   -2.2038 C   0  0  0  0  0  0  0  0  0  0  0  0
   52.3118   -6.3176   -1.6974 C   0  0  0  0  0  0  0  0  0  0  0  0
   51.6841   -5.2025   -2.0620 N   0  0  0  0  0  0  0  0  0  0  0  0
   51.9992   -4.2422   -1.8190 H   0  0  0  0  0  0  0  0  0  0  0  0
   55.1391   -5.3564   -5.3993 C   0  0  0  0  0  0  0  0  0  0  0  0
   54.1078   -5.6359   -6.8283 S   0  0  0  0  0  0  0  0  0  0  0  0
   54.8929   -5.1213   -8.0279 O   0  0  0  0  0  0  0  0  0  0  0  0
   53.8635   -7.0846   -7.0431 O   0  0  0  0  0  0  0  0  0  0  0  0
 19 20  1  0  0  0
 20 21  2  0  0  0
 20 22  2  0  0  0
 20  1  1  0  0  0
  1  2  2  0  0  0
  2  3  1  0  0  0
  3  4  2  0  0  0
  4  5  1  0  0  0
  5  6  1  0  0  0
  6  7  2  0  0  0
  6  8  1  0  0  0
  8  9  2  0  0  0
  9 13  1  0  0  0
 13 14  2  0  0  0
 14 15  1  0  0  0
 15 16  2  0  0  0
 16 17  1  0  0  0
  8 10  1  0  0  0
 10 11  2  0  0  0
 11  1  1  0  0  0
 10  4  1  0  0  0
 17 13  1  0  0  0
  5 12  1  0  0  0
 17 18  1  0  0  0
M  END
> <minimizedAffinity>
-7.90424

> <CNNscore>
0.4667131901

> <CNNaffinity>
6.1663498878

> <CNN_VS>
2.8779168129

> <CNNaffinity_variance>
0.0910056308

$$$$
[H]/C(=C1\C(=O)N([H])c2c([H])c([H])c(S(=O)(=O)C([H])([H])[H])c([H])c21)c1nc([H])c([H])n1[H]


 22 24  0  0  0  0  0  0  0  0999 V2000
   53.8124   -3.7615   -8.0764 C   0  0  0  0  0  0  0  0  0  0  0  0
   53.3261   -2.8455   -8.9781 C   0  0  0  0  0  0  0  0  0  0  0  0
   52.0738   -2.3217   -8.9105 C   0  0  0  0  0  0  0  0  0  0  0  0
   51.2167   -2.7044   -7.8983 C   0  0  0  0  0  0  0  0  0  0  0  0
   49.8766   -2.3305   -7.6099 N   0  0  0  0  0  0  0  0  0  0  0  0
   49.4853   -3.0407   -6.4647 C   0  0  0  0  0  0  0  0  0  0  0  0
   48.3801   -2.9962   -5.8866 O   0  0  0  0  0  0  0  0  0  0  0  0
   50.6068   -3.8940   -6.0047 C   0  0  0  0  0  0  0  0  0  0  0  0
   50.6005   -4.7064   -4.9997 C   0  0  0  0  0  0  0  0  0  0  0  0
   51.6811   -3.6350   -6.9626 C   0  0  0  0  0  0  0  0  0  0  0  0
   52.9533   -4.1536   -7.0512 C   0  0  0  0  0  0  0  0  0  0  0  0
   49.3232   -1.6547   -8.1673 H   0  0  0  0  0  0  0  0  0  0  0  0
   51.6912   -5.5161   -4.5608 C   0  0  0  0  0  0  0  0  0  0  0  0
   52.2761   -5.4830   -3.3547 N   0  0  0  0  0  0  0  0  0  0  0  0
   53.3347   -6.3142   -3.3225 C   0  0  0  0  0  0  0  0  0  0  0  0
   53.4154   -6.8913   -4.5596 C   0  0  0  0  0  0  0  0  0  0  0  0
   52.4184   -6.3987   -5.2901 N   0  0  0  0  0  0  0  0  0  0  0  0
   52.2284   -6.6570   -6.2789 H   0  0  0  0  0  0  0  0  0  0  0  0
   55.9344   -4.4766   -9.9352 C   0  0  0  0  0  0  0  0  0  0  0  0
   55.4484   -4.4013   -8.2200 S   0  0  0  0  0  0  0  0  0  0  0  0
   55.4614   -5.8365   -7.7098 O   0  0  0  0  0  0  0  0  0  0  0  0
   56.4298   -3.6323   -7.4137 O   0  0  0  0  0  0  0  0  0  0  0  0
 19 20  1  0  0  0
 20 21  2  0  0  0
 20 22  2  0  0  0
 20  1  1  0  0  0
  1  2  2  0  0  0
  2  3  1  0  0  0
  3  4  2  0  0  0
  4  5  1  0  0  0
  5  6  1  0  0  0
  6  7  2  0  0  0
  6  8  1  0  0  0
  8  9  2  0  0  0
  9 13  1  0  0  0
 13 14  2  0  0  0
 14 15  1  0  0  0
 15 16  2  0  0  0
 16 17  1  0  0  0
  8 10  1  0  0  0
 10 11  2  0  0  0
 11  1  1  0  0  0
 10  4  1  0  0  0
 17 13  1  0  0  0
  5 12  1  0  0  0
 17 18  1  0  0  0
M  END
> <minimizedAffinity>
-7.65009

> <CNNscore>
0.4605358839

> <CNNaffinity>
6.2751498222

> <CNN_VS>
2.8899316788

> <CNNaffinity_variance>
0.2108564824

$$$$
[H]/C(=C1\C(=O)N([H])c2c([H])c([H])c(S(=O)(=O)C([H])([H])[H])c([H])c21)c1nc([H])c([H])n1[H]


 22 24  0  0  0  0  0  0  0  0999 V2000
   58.1164   -5.3612   -9.8289 C   0  0  0  0  0  0  0  0  0  0  0  0
   57.9103   -4.7517  -11.0431 C   0  0  0  0  0  0  0  0  0  0  0  0
   56.7668   -4.0907  -11.3638 C   0  0  0  0  0  0  0  0  0  0  0  0
   55.7366   -4.0051  -10.4489 C   0  0  0  0  0  0  0  0  0  0  0  0
   54.4541   -3.3992  -10.5317 N   0  0  0  0  0  0  0  0  0  0  0  0
   53.8067   -3.6301   -9.3083 C   0  0  0  0  0  0  0  0  0  0  0  0
   52.6613   -3.2623   -8.9762 O   0  0  0  0  0  0  0  0  0  0  0  0
   54.6999   -4.4055   -8.4148 C   0  0  0  0  0  0  0  0  0  0  0  0
   54.4291   -4.8249   -7.2228 C   0  0  0  0  0  0  0  0  0  0  0  0
   55.9145   -4.6142   -9.2021 C   0  0  0  0  0  0  0  0  0  0  0  0
   57.0810   -5.2798   -8.8992 C   0  0  0  0  0  0  0  0  0  0  0  0
   54.0983   -2.8900  -11.3610 H   0  0  0  0  0  0  0  0  0  0  0  0
   55.3022   -5.5631   -6.3680 C   0  0  0  0  0  0  0  0  0  0  0  0
   55.2889   -6.8884   -6.1648 N   0  0  0  0  0  0  0  0  0  0  0  0
   56.1878   -7.2285   -5.2219 C   0  0  0  0  0  0  0  0  0  0  0  0
   56.7885   -6.0680   -4.8188 C   0  0  0  0  0  0  0  0  0  0  0  0
   56.2424   -5.0775   -5.5196 N   0  0  0  0  0  0  0  0  0  0  0  0
   56.5032   -4.0756   -5.4262 H   0  0  0  0  0  0  0  0  0  0  0  0
   60.9240   -5.6181  -10.5502 C   0  0  0  0  0  0  0  0  0  0  0  0
   59.6247   -6.2018   -9.4756 S   0  0  0  0  0  0  0  0  0  0  0  0
   59.4469   -7.6823   -9.7870 O   0  0  0  0  0  0  0  0  0  0  0  0
   60.0140   -6.0900   -8.0471 O   0  0  0  0  0  0  0  0  0  0  0  0
 19 20  1  0  0  0
 20 21  2  0  0  0
 20 22  2  0  0  0
 20  1  1  0  0  0
  1  2  2  0  0  0
  2  3  1  0  0  0
  3  4  2  0  0  0
  4  5  1  0  0  0
  5  6  1  0  0  0
  6  7  2  0  0  0
  6  8  1  0  0  0
  8  9  2  0  0  0
  9 13  1  0  0  0
 13 14  2  0  0  0
 14 15  1  0  0  0
 15 16  2  0  0  0
 16 17  1  0  0  0
  8 10  1  0  0  0
 10 11  2  0  0  0
 11  1  1  0  0  0
 10  4  1  0  0  0
 17 13  1  0  0  0
  5 12  1  0  0  0
 17 18  1  0  0  0
M  END
> <minimizedAffinity>
-5.75501

> <CNNscore>
0.4457594454

> <CNNaffinity>
5.3027429581

> <CNN_VS>
2.3637478352

> <CNNaffinity_variance>
0.1604355872

$$$$
[H]/C(=C1\C(=O)N([H])c2c([H])c([H])c(S(=O)(=O)C([H])([H])[H])c([H])c21)c1nc([H])c([H])n1[H]


 22 24  0  0  0  0  0  0  0  0999 V2000
   56.0872   -6.2716   -5.5864 C   0  0  0  0  0  0  0  0  0  0  0  0
   57.3452   -6.1690   -6.1300 C   0  0  0  0  0  0  0  0  0  0  0  0
   57.5896   -5.6307   -7.3538 C   0  0  0  0  0  0  0  0  0  0  0  0
   56.5465   -5.1510   -8.1202 C   0  0  0  0  0  0  0  0  0  0  0  0
   56.5231   -4.5652   -9.4145 N   0  0  0  0  0  0  0  0  0  0  0  0
   55.1833   -4.2758   -9.7145 C   0  0  0  0  0  0  0  0  0  0  0  0
   54.7357   -3.7556  -10.7569 O   0  0  0  0  0  0  0  0  0  0  0  0
   54.3225   -4.6868   -8.5797 C   0  0  0  0  0  0  0  0  0  0  0  0
   53.0348   -4.6006   -8.5132 C   0  0  0  0  0  0  0  0  0  0  0  0
   55.2526   -5.2393   -7.5957 C   0  0  0  0  0  0  0  0  0  0  0  0
   55.0281   -5.7897   -6.3539 C   0  0  0  0  0  0  0  0  0  0  0  0
   57.3627   -4.3996   -9.9988 H   0  0  0  0  0  0  0  0  0  0  0  0
   52.2176   -4.9913   -7.4098 C   0  0  0  0  0  0  0  0  0  0  0  0
   51.3489   -6.0123   -7.3812 N   0  0  0  0  0  0  0  0  0  0  0  0
   50.6803   -6.0281   -6.2127 C   0  0  0  0  0  0  0  0  0  0  0  0
   51.1503   -4.9735   -5.4800 C   0  0  0  0  0  0  0  0  0  0  0  0
   52.0742   -4.3622   -6.2169 N   0  0  0  0  0  0  0  0  0  0  0  0
   52.6074   -3.5222   -5.9160 H   0  0  0  0  0  0  0  0  0  0  0  0
   56.4235   -8.6652   -3.9657 C   0  0  0  0  0  0  0  0  0  0  0  0
   55.8386   -6.9797   -3.9916 S   0  0  0  0  0  0  0  0  0  0  0  0
   54.3429   -7.0430   -3.7098 O   0  0  0  0  0  0  0  0  0  0  0  0
   56.4624   -6.1746   -2.9113 O   0  0  0  0  0  0  0  0  0  0  0  0
 19 20  1  0  0  0
 20 21  2  0  0  0
 20 22  2  0  0  0
 20  1  1  0  0  0
  1  2  2  0  0  0
  2  3  1  0  0  0
  3  4  2  0  0  0
  4  5  1  0  0  0
  5  6  1  0  0  0
  6  7  2  0  0  0
  6  8  1  0  0  0
  8  9  2  0  0  0
  9 13  1  0  0  0
 13 14  2  0  0  0
 14 15  1  0  0  0
 15 16  2  0  0  0
 16 17  1  0  0  0
  8 10  1  0  0  0
 10 11  2  0  0  0
 11  1  1  0  0  0
 10  4  1  0  0  0
 17 13  1  0  0  0
  5 12  1  0  0  0
 17 18  1  0  0  0
M  END
> <minimizedAffinity>
-3.44693

> <CNNscore>
0.3834408224

> <CNNaffinity>
5.5810132027

> <CNN_VS>
2.1399881840

> <CNNaffinity_variance>
0.3958912790

$$$$
[H]c1nc(N([H])c2c([H])c(N3C([H])([H])C([H])([H])N(C([H])([H])C([H])([H])[H])C([H])([H])C3([H])[H])c([H])c([H])c2OC(F)(F)F)nc2c1C([H])([H])C([H])([H])c1c(C(=O)N([H])[H])nn(C([H])([H])[H])c1-2


 40 44  0  0  0  0  0  0  0  0999 V2000
   54.4824   -3.9923   -9.7464 N   0  0  0  0  0  0  0  0  0  0  0  0
   54.4994   -3.9517  -10.8218 H   0  0  0  0  0  0  0  0  0  0  0  0
   53.3256   -3.4907   -9.1186 C   0  0  0  0  0  0  0  0  0  0  0  0
   52.6013   -2.4482   -9.4998 N   0  0  0  0  0  0  0  0  0  0  0  0
   51.5200   -1.9570   -8.9366 C   0  0  0  0  0  0  0  0  0  0  0  0
   51.0502   -2.6157   -7.7642 C   0  0  0  0  0  0  0  0  0  0  0  0
   49.8725   -2.0906   -7.0889 C   0  0  0  0  0  0  0  0  0  0  0  0
   49.3466   -2.8793   -5.9673 C   0  0  0  0  0  0  0  0  0  0  0  0
   50.1668   -4.0061   -5.5138 C   0  0  0  0  0  0  0  0  0  0  0  0
   49.9603   -4.8363   -4.4290 C   0  0  0  0  0  0  0  0  0  0  0  0
   50.9608   -5.7348   -4.4268 N   0  0  0  0  0  0  0  0  0  0  0  0
   51.7710   -5.4872   -5.4662 N   0  0  0  0  0  0  0  0  0  0  0  0
   52.9692   -6.2095   -5.8382 C   0  0  0  0  0  0  0  0  0  0  0  0
   51.3012   -4.4283   -6.1468 C   0  0  0  0  0  0  0  0  0  0  0  0
   51.7649   -3.6945   -7.3364 C   0  0  0  0  0  0  0  0  0  0  0  0
   52.8773   -4.1377   -7.9813 N   0  0  0  0  0  0  0  0  0  0  0  0
   48.8874   -4.7973   -3.4478 C   0  0  0  0  0  0  0  0  0  0  0  0
   47.6318   -4.2085   -3.7206 N   0  0  0  0  0  0  0  0  0  0  0  0
   49.0887   -5.3052   -2.3236 O   0  0  0  0  0  0  0  0  0  0  0  0
   47.0366   -3.8879   -2.9417 H   0  0  0  0  0  0  0  0  0  0  0  0
   47.2814   -4.0850   -4.6929 H   0  0  0  0  0  0  0  0  0  0  0  0
   56.8047   -5.3807   -7.1567 C   0  0  0  0  0  0  0  0  0  0  0  0
   57.8872   -5.6676   -7.9594 C   0  0  0  0  0  0  0  0  0  0  0  0
   57.8102   -5.3878   -9.3159 C   0  0  0  0  0  0  0  0  0  0  0  0
   56.7203   -4.8383   -9.9271 C   0  0  0  0  0  0  0  0  0  0  0  0
   55.6021   -4.5393   -9.1081 C   0  0  0  0  0  0  0  0  0  0  0  0
   55.6709   -4.8134   -7.7670 C   0  0  0  0  0  0  0  0  0  0  0  0
   56.6094   -6.3177   -3.0359 N   0  0  0  0  0  0  0  0  0  0  0  0
   56.3618   -4.9894   -3.4510 C   0  0  0  0  0  0  0  0  0  0  0  0
   56.0387   -4.8000   -4.8884 C   0  0  0  0  0  0  0  0  0  0  0  0
   56.8244   -5.6563   -5.7638 N   0  0  0  0  0  0  0  0  0  0  0  0
   57.6013   -6.7549   -5.2691 C   0  0  0  0  0  0  0  0  0  0  0  0
   56.9482   -7.2763   -4.0267 C   0  0  0  0  0  0  0  0  0  0  0  0
   54.8156   -8.0045   -3.0965 C   0  0  0  0  0  0  0  0  0  0  0  0
   55.3906   -6.8292   -2.3791 C   0  0  0  0  0  0  0  0  0  0  0  0
   56.6674   -4.5686  -11.2873 O   0  0  0  0  0  0  0  0  0  0  0  0
   57.5219   -3.7178  -11.9785 C   0  0  0  0  0  0  0  0  0  0  0  0
   57.0238   -3.3799  -13.2447 F   0  0  0  0  0  0  0  0  0  0  0  0
   57.6562   -2.5336  -11.2959 F   0  0  0  0  0  0  0  0  0  0  0  0
   58.7995   -4.2377  -12.1280 F   0  0  0  0  0  0  0  0  0  0  0  0
 34 35  1  0  0  0
 35 28  1  0  0  0
 28 29  1  0  0  0
 29 30  1  0  0  0
 30 31  1  0  0  0
 31 32  1  0  0  0
 32 33  1  0  0  0
 31 22  1  0  0  0
 22 23  2  0  0  0
 23 24  1  0  0  0
 24 25  2  0  0  0
 25 36  1  0  0  0
 36 37  1  0  0  0
 37 38  1  0  0  0
 37 39  1  0  0  0
 37 40  1  0  0  0
 25 26  1  0  0  0
 26  1  1  0  0  0
  1  3  1  0  0  0
  3  4  2  0  0  0
  4  5  1  0  0  0
  5  6  2  0  0  0
  6  7  1  0  0  0
  7  8  1  0  0  0
  8  9  1  0  0  0
  9 10  1  0  0  0
 10 11  2  0  0  0
 11 12  1  0  0  0
 12 13  1  0  0  0
 12 14  1  0  0  0
 14 15  1  0  0  0
 15 16  2  0  0  0
 10 17  1  0  0  0
 17 18  1  0  0  0
 17 19  2  0  0  0
 26 27  2  0  0  0
 33 28  1  0  0  0
 27 22  1  0  0  0
 16  3  1  0  0  0
 15  6  1  0  0  0
 14  9  2  0  0  0
  1  2  1  0  0  0
 18 20  1  0  0  0
 18 21  1  0  0  0
M  END
> <minimizedAffinity>
-9.57966

> <CNNscore>
0.7781474590

> <CNNaffinity>
8.3515567780

> <CNN_VS>
6.4987425804

> <CNNaffinity_variance>
0.2013229877

$$$$
[H]c1nc(N([H])c2c([H])c(N3C([H])([H])C([H])([H])N(C([H])([H])C([H])([H])[H])C([H])([H])C3([H])[H])c([H])c([H])c2OC(F)(F)F)nc2c1C([H])([H])C([H])([H])c1c(C(=O)N([H])[H])nn(C([H])([H])[H])c1-2


 40 44  0  0  0  0  0  0  0  0999 V2000
   54.0653   -3.6153   -9.5521 N   0  0  0  0  0  0  0  0  0  0  0  0
   53.6098   -2.7253   -9.9504 H   0  0  0  0  0  0  0  0  0  0  0  0
   53.3396   -4.2996   -8.5577 C   0  0  0  0  0  0  0  0  0  0  0  0
   53.5742   -5.5209   -8.0992 N   0  0  0  0  0  0  0  0  0  0  0  0
   52.9168   -6.1847   -7.1747 C   0  0  0  0  0  0  0  0  0  0  0  0
   51.8056   -5.5240   -6.5765 C   0  0  0  0  0  0  0  0  0  0  0  0
   51.0293   -6.2304   -5.5680 C   0  0  0  0  0  0  0  0  0  0  0  0
   49.9805   -5.4635   -4.8836 C   0  0  0  0  0  0  0  0  0  0  0  0
   49.6872   -4.1299   -5.4160 C   0  0  0  0  0  0  0  0  0  0  0  0
   48.6926   -3.2516   -5.0313 C   0  0  0  0  0  0  0  0  0  0  0  0
   48.8299   -2.1481   -5.7874 N   0  0  0  0  0  0  0  0  0  0  0  0
   49.8680   -2.3163   -6.6194 N   0  0  0  0  0  0  0  0  0  0  0  0
   50.3656   -1.3795   -7.6046 C   0  0  0  0  0  0  0  0  0  0  0  0
   50.4085   -3.5280   -6.4077 C   0  0  0  0  0  0  0  0  0  0  0  0
   51.5284   -4.2647   -7.0176 C   0  0  0  0  0  0  0  0  0  0  0  0
   52.2629   -3.6491   -7.9828 N   0  0  0  0  0  0  0  0  0  0  0  0
   47.6701   -3.4287   -4.0123 C   0  0  0  0  0  0  0  0  0  0  0  0
   47.6330   -4.5587   -3.1642 N   0  0  0  0  0  0  0  0  0  0  0  0
   46.7947   -2.5456   -3.8861 O   0  0  0  0  0  0  0  0  0  0  0  0
   46.7468   -4.8303   -2.7116 H   0  0  0  0  0  0  0  0  0  0  0  0
   48.4795   -5.1349   -2.9775 H   0  0  0  0  0  0  0  0  0  0  0  0
   56.9110   -4.2949  -11.8905 C   0  0  0  0  0  0  0  0  0  0  0  0
   57.8539   -4.7144  -10.9776 C   0  0  0  0  0  0  0  0  0  0  0  0
   57.5131   -4.7613   -9.6337 C   0  0  0  0  0  0  0  0  0  0  0  0
   56.2888   -4.4163   -9.1383 C   0  0  0  0  0  0  0  0  0  0  0  0
   55.3124   -3.9840  -10.0711 C   0  0  0  0  0  0  0  0  0  0  0  0
   55.6421   -3.9347  -11.4005 C   0  0  0  0  0  0  0  0  0  0  0  0
   57.6749   -3.8100  -16.0231 N   0  0  0  0  0  0  0  0  0  0  0  0
   56.6058   -4.6396  -15.6147 C   0  0  0  0  0  0  0  0  0  0  0  0
   56.1273   -4.4555  -14.2206 C   0  0  0  0  0  0  0  0  0  0  0  0
   57.2086   -4.2168  -13.2768 N   0  0  0  0  0  0  0  0  0  0  0  0
   58.5428   -3.9058  -13.6994 C   0  0  0  0  0  0  0  0  0  0  0  0
   58.4703   -3.2000  -15.0179 C   0  0  0  0  0  0  0  0  0  0  0  0
   55.9555   -3.1371  -17.6532 C   0  0  0  0  0  0  0  0  0  0  0  0
   57.1179   -2.7029  -16.8247 C   0  0  0  0  0  0  0  0  0  0  0  0
   55.9725   -4.4710   -7.7883 O   0  0  0  0  0  0  0  0  0  0  0  0
   56.5878   -5.2845   -6.8442 C   0  0  0  0  0  0  0  0  0  0  0  0
   56.0011   -6.5560   -6.7768 F   0  0  0  0  0  0  0  0  0  0  0  0
   57.9011   -5.4910   -7.1892 F   0  0  0  0  0  0  0  0  0  0  0  0
   56.5934   -4.7298   -5.5724 F   0  0  0  0  0  0  0  0  0  0  0  0
 34 35  1  0  0  0
 35 28  1  0  0  0
 28 29  1  0  0  0
 29 30  1  0  0  0
 30 31  1  0  0  0
 31 32  1  0  0  0
 32 33  1  0  0  0
 31 22  1  0  0  0
 22 23  2  0  0  0
 23 24  1  0  0  0
 24 25  2  0  0  0
 25 36  1  0  0  0
 36 37  1  0  0  0
 37 38  1  0  0  0
 37 39  1  0  0  0
 37 40  1  0  0  0
 25 26  1  0  0  0
 26  1  1  0  0  0
  1  3  1  0  0  0
  3  4  2  0  0  0
  4  5  1  0  0  0
  5  6  2  0  0  0
  6  7  1  0  0  0
  7  8  1  0  0  0
  8  9  1  0  0  0
  9 10  1  0  0  0
 10 11  2  0  0  0
 11 12  1  0  0  0
 12 13  1  0  0  0
 12 14  1  0  0  0
 14 15  1  0  0  0
 15 16  2  0  0  0
 10 17  1  0  0  0
 17 18  1  0  0  0
 17 19  2  0  0  0
 26 27  2  0  0  0
 33 28  1  0  0  0
 27 22  1  0  0  0
 16  3  1  0  0  0
 15  6  1  0  0  0
 14  9  2  0  0  0
  1  2  1  0  0  0
 18 20  1  0  0  0
 18 21  1  0  0  0
M  END
> <minimizedAffinity>
-8.39493

> <CNNscore>
0.7645090818

> <CNNaffinity>
8.0157222748

> <CNN_VS>
6.1280922890

> <CNNaffinity_variance>
0.0802755356

$$$$
[H]c1nc(N([H])c2c([H])c(N3C([H])([H])C([H])([H])N(C([H])([H])C([H])([H])[H])C([H])([H])C3([H])[H])c([H])c([H])c2OC(F)(F)F)nc2c1C([H])([H])C([H])([H])c1c(C(=O)N([H])[H])nn(C([H])([H])[H])c1-2


 40 44  0  0  0  0  0  0  0  0999 V2000
   54.2400   -4.2901   -9.1868 N   0  0  0  0  0  0  0  0  0  0  0  0
   54.2472   -4.4745  -10.2471 H   0  0  0  0  0  0  0  0  0  0  0  0
   53.1150   -3.6136   -8.6761 C   0  0  0  0  0  0  0  0  0  0  0  0
   52.6127   -2.4655   -9.1077 N   0  0  0  0  0  0  0  0  0  0  0  0
   51.5673   -1.8110   -8.6532 C   0  0  0  0  0  0  0  0  0  0  0  0
   50.8713   -2.3940   -7.5556 C   0  0  0  0  0  0  0  0  0  0  0  0
   49.7243   -1.6912   -6.9994 C   0  0  0  0  0  0  0  0  0  0  0  0
   48.9582   -2.3931   -5.9616 C   0  0  0  0  0  0  0  0  0  0  0  0
   49.5333   -3.6403   -5.4498 C   0  0  0  0  0  0  0  0  0  0  0  0
   49.0781   -4.4343   -4.4149 C   0  0  0  0  0  0  0  0  0  0  0  0
   49.9165   -5.4818   -4.3263 N   0  0  0  0  0  0  0  0  0  0  0  0
   50.8664   -5.3603   -5.2650 N   0  0  0  0  0  0  0  0  0  0  0  0
   51.9683   -6.2631   -5.5225 C   0  0  0  0  0  0  0  0  0  0  0  0
   50.6494   -4.2348   -5.9661 C   0  0  0  0  0  0  0  0  0  0  0  0
   51.3533   -3.5766   -7.0797 C   0  0  0  0  0  0  0  0  0  0  0  0
   52.4459   -4.1882   -7.6107 N   0  0  0  0  0  0  0  0  0  0  0  0
   47.9227   -4.2303   -3.5554 C   0  0  0  0  0  0  0  0  0  0  0  0
   46.8133   -3.4484   -3.9497 N   0  0  0  0  0  0  0  0  0  0  0  0
   47.9158   -4.7692   -2.4277 O   0  0  0  0  0  0  0  0  0  0  0  0
   46.1932   -3.0412   -3.2331 H   0  0  0  0  0  0  0  0  0  0  0  0
   46.5966   -3.2660   -4.9513 H   0  0  0  0  0  0  0  0  0  0  0  0
   56.3712   -5.9585   -6.5980 C   0  0  0  0  0  0  0  0  0  0  0  0
   57.6159   -5.6273   -7.0874 C   0  0  0  0  0  0  0  0  0  0  0  0
   57.7021   -4.8656   -8.2435 C   0  0  0  0  0  0  0  0  0  0  0  0
   56.6242   -4.4104   -8.9466 C   0  0  0  0  0  0  0  0  0  0  0  0
   55.3395   -4.7463   -8.4495 C   0  0  0  0  0  0  0  0  0  0  0  0
   55.2466   -5.4989   -7.3079 C   0  0  0  0  0  0  0  0  0  0  0  0
   55.8036   -8.0831   -2.9841 N   0  0  0  0  0  0  0  0  0  0  0  0
   57.0768   -7.5392   -3.2686 C   0  0  0  0  0  0  0  0  0  0  0  0
   57.1211   -6.4812   -4.3103 C   0  0  0  0  0  0  0  0  0  0  0  0
   56.2240   -6.7451   -5.4249 N   0  0  0  0  0  0  0  0  0  0  0  0
   55.2095   -7.7567   -5.3721 C   0  0  0  0  0  0  0  0  0  0  0  0
   54.7748   -7.9186   -3.9484 C   0  0  0  0  0  0  0  0  0  0  0  0
   54.3174   -6.3687   -2.0257 C   0  0  0  0  0  0  0  0  0  0  0  0
   55.3011   -7.4552   -1.7464 C   0  0  0  0  0  0  0  0  0  0  0  0
   56.7366   -3.6502  -10.1021 O   0  0  0  0  0  0  0  0  0  0  0  0
   57.0479   -4.1379  -11.3658 C   0  0  0  0  0  0  0  0  0  0  0  0
   55.9212   -4.6375  -12.0338 F   0  0  0  0  0  0  0  0  0  0  0  0
   57.5353   -3.1227  -12.1521 F   0  0  0  0  0  0  0  0  0  0  0  0
   58.0232   -5.1244  -11.3405 F   0  0  0  0  0  0  0  0  0  0  0  0
 34 35  1  0  0  0
 35 28  1  0  0  0
 28 29  1  0  0  0
 29 30  1  0  0  0
 30 31  1  0  0  0
 31 32  1  0  0  0
 32 33  1  0  0  0
 31 22  1  0  0  0
 22 23  2  0  0  0
 23 24  1  0  0  0
 24 25  2  0  0  0
 25 36  1  0  0  0
 36 37  1  0  0  0
 37 38  1  0  0  0
 37 39  1  0  0  0
 37 40  1  0  0  0
 25 26  1  0  0  0
 26  1  1  0  0  0
  1  3  1  0  0  0
  3  4  2  0  0  0
  4  5  1  0  0  0
  5  6  2  0  0  0
  6  7  1  0  0  0
  7  8  1  0  0  0
  8  9  1  0  0  0
  9 10  1  0  0  0
 10 11  2  0  0  0
 11 12  1  0  0  0
 12 13  1  0  0  0
 12 14  1  0  0  0
 14 15  1  0  0  0
 15 16  2  0  0  0
 10 17  1  0  0  0
 17 18  1  0  0  0
 17 19  2  0  0  0
 26 27  2  0  0  0
 33 28  1  0  0  0
 27 22  1  0  0  0
 16  3  1  0  0  0
 15  6  1  0  0  0
 14  9  2  0  0  0
  1  2  1  0  0  0
 18 20  1  0  0  0
 18 21  1  0  0  0
M  END
> <minimizedAffinity>
-9.03737

> <CNNscore>
0.7514718771

> <CNNaffinity>
8.2185440063

> <CNN_VS>
6.1760048866

> <CNNaffinity_variance>
0.1694763154

$$$$
[H]c1nc(N([H])c2c([H])c(N3C([H])([H])C([H])([H])N(C([H])([H])C([H])([H])[H])C([H])([H])C3([H])[H])c([H])c([H])c2OC(F)(F)F)nc2c1C([H])([H])C([H])([H])c1c(C(=O)N([H])[H])nn(C([H])([H])[H])c1-2


 40 44  0  0  0  0  0  0  0  0999 V2000
   54.3101   -5.6326   -7.2475 N   0  0  0  0  0  0  0  0  0  0  0  0
   54.6120   -6.0654   -8.1855 H   0  0  0  0  0  0  0  0  0  0  0  0
   53.2029   -4.7629   -7.2862 C   0  0  0  0  0  0  0  0  0  0  0  0
   52.9711   -3.8081   -8.1759 N   0  0  0  0  0  0  0  0  0  0  0  0
   51.9502   -2.9826   -8.2384 C   0  0  0  0  0  0  0  0  0  0  0  0
   50.9540   -3.1147   -7.2289 C   0  0  0  0  0  0  0  0  0  0  0  0
   49.8188   -2.2035   -7.2401 C   0  0  0  0  0  0  0  0  0  0  0  0
   48.7521   -2.4639   -6.2650 C   0  0  0  0  0  0  0  0  0  0  0  0
   49.0226   -3.4879   -5.2519 C   0  0  0  0  0  0  0  0  0  0  0  0
   48.2439   -3.8523   -4.1703 C   0  0  0  0  0  0  0  0  0  0  0  0
   48.8903   -4.8486   -3.5397 N   0  0  0  0  0  0  0  0  0  0  0  0
   50.0331   -5.1079   -4.1917 N   0  0  0  0  0  0  0  0  0  0  0  0
   51.0308   -6.1016   -3.8554 C   0  0  0  0  0  0  0  0  0  0  0  0
   50.1338   -4.2823   -5.2468 C   0  0  0  0  0  0  0  0  0  0  0  0
   51.1515   -4.0855   -6.2929 C   0  0  0  0  0  0  0  0  0  0  0  0
   52.2409   -4.8997   -6.3018 N   0  0  0  0  0  0  0  0  0  0  0  0
   46.9649   -3.3040   -3.7475 C   0  0  0  0  0  0  0  0  0  0  0  0
   45.9877   -4.0827   -3.0868 N   0  0  0  0  0  0  0  0  0  0  0  0
   46.7268   -2.0991   -3.9790 O   0  0  0  0  0  0  0  0  0  0  0  0
   44.9988   -3.7904   -3.1097 H   0  0  0  0  0  0  0  0  0  0  0  0
   46.2335   -4.9528   -2.5711 H   0  0  0  0  0  0  0  0  0  0  0  0
   55.2669   -6.5704   -3.7500 C   0  0  0  0  0  0  0  0  0  0  0  0
   56.6238   -6.7324   -3.9264 C   0  0  0  0  0  0  0  0  0  0  0  0
   57.1672   -6.5216   -5.1851 C   0  0  0  0  0  0  0  0  0  0  0  0
   56.4437   -6.1579   -6.2840 C   0  0  0  0  0  0  0  0  0  0  0  0
   55.0467   -5.9884   -6.1111 C   0  0  0  0  0  0  0  0  0  0  0  0
   54.5026   -6.1954   -4.8704 C   0  0  0  0  0  0  0  0  0  0  0  0
   53.2058   -7.2594   -0.1204 N   0  0  0  0  0  0  0  0  0  0  0  0
   53.4674   -5.9291   -0.5201 C   0  0  0  0  0  0  0  0  0  0  0  0
   53.8083   -5.7286   -1.9519 C   0  0  0  0  0  0  0  0  0  0  0  0
   54.6556   -6.7838   -2.4861 N   0  0  0  0  0  0  0  0  0  0  0  0
   54.8835   -8.0144   -1.7869 C   0  0  0  0  0  0  0  0  0  0  0  0
   53.6809   -8.3120   -0.9461 C   0  0  0  0  0  0  0  0  0  0  0  0
   51.2596   -8.5317   -0.9330 C   0  0  0  0  0  0  0  0  0  0  0  0
   51.7426   -7.4369   -0.0417 C   0  0  0  0  0  0  0  0  0  0  0  0
   57.0111   -5.9537   -7.5339 O   0  0  0  0  0  0  0  0  0  0  0  0
   57.3585   -4.7213   -8.0745 C   0  0  0  0  0  0  0  0  0  0  0  0
   56.5289   -4.3589   -9.1448 F   0  0  0  0  0  0  0  0  0  0  0  0
   57.2089   -3.7366   -7.1288 F   0  0  0  0  0  0  0  0  0  0  0  0
   58.6787   -4.6684   -8.4979 F   0  0  0  0  0  0  0  0  0  0  0  0
 34 35  1  0  0  0
 35 28  1  0  0  0
 28 29  1  0  0  0
 29 30  1  0  0  0
 30 31  1  0  0  0
 31 32  1  0  0  0
 32 33  1  0  0  0
 31 22  1  0  0  0
 22 23  2  0  0  0
 23 24  1  0  0  0
 24 25  2  0  0  0
 25 36  1  0  0  0
 36 37  1  0  0  0
 37 38  1  0  0  0
 37 39  1  0  0  0
 37 40  1  0  0  0
 25 26  1  0  0  0
 26  1  1  0  0  0
  1  3  1  0  0  0
  3  4  2  0  0  0
  4  5  1  0  0  0
  5  6  2  0  0  0
  6  7  1  0  0  0
  7  8  1  0  0  0
  8  9  1  0  0  0
  9 10  1  0  0  0
 10 11  2  0  0  0
 11 12  1  0  0  0
 12 13  1  0  0  0
 12 14  1  0  0  0
 14 15  1  0  0  0
 15 16  2  0  0  0
 10 17  1  0  0  0
 17 18  1  0  0  0
 17 19  2  0  0  0
 26 27  2  0  0  0
 33 28  1  0  0  0
 27 22  1  0  0  0
 16  3  1  0  0  0
 15  6  1  0  0  0
 14  9  2  0  0  0
  1  2  1  0  0  0
 18 20  1  0  0  0
 18 21  1  0  0  0
M  END
> <minimizedAffinity>
-9.33106

> <CNNscore>
0.7056787014

> <CNNaffinity>
8.3067369461

> <CNN_VS>
5.8618874550

> <CNNaffinity_variance>
0.1441715360

$$$$
[H]c1nc(N([H])c2c([H])c(N3C([H])([H])C([H])([H])N(C([H])([H])C([H])([H])[H])C([H])([H])C3([H])[H])c([H])c([H])c2OC(F)(F)F)nc2c1C([H])([H])C([H])([H])c1c(C(=O)N([H])[H])nn(C([H])([H])[H])c1-2


 40 44  0  0  0  0  0  0  0  0999 V2000
   52.4751   -3.6047   -7.6890 N   0  0  0  0  0  0  0  0  0  0  0  0
   51.8275   -2.7511   -7.7908 H   0  0  0  0  0  0  0  0  0  0  0  0
   53.4783   -3.7504   -8.6668 C   0  0  0  0  0  0  0  0  0  0  0  0
   53.3945   -3.4227   -9.9484 N   0  0  0  0  0  0  0  0  0  0  0  0
   54.3105   -3.5461  -10.8829 C   0  0  0  0  0  0  0  0  0  0  0  0
   55.5611   -4.1018  -10.4877 C   0  0  0  0  0  0  0  0  0  0  0  0
   56.5968   -4.2847  -11.4941 C   0  0  0  0  0  0  0  0  0  0  0  0
   57.9115   -4.7321  -11.0164 C   0  0  0  0  0  0  0  0  0  0  0  0
   57.9974   -5.1380   -9.6107 C   0  0  0  0  0  0  0  0  0  0  0  0
   59.0726   -5.6888   -8.9404 C   0  0  0  0  0  0  0  0  0  0  0  0
   58.6873   -5.8727   -7.6653 N   0  0  0  0  0  0  0  0  0  0  0  0
   57.4197   -5.4570   -7.5289 N   0  0  0  0  0  0  0  0  0  0  0  0
   56.6134   -5.4750   -6.3266 C   0  0  0  0  0  0  0  0  0  0  0  0
   56.9769   -5.0022   -8.7130 C   0  0  0  0  0  0  0  0  0  0  0  0
   55.6919   -4.4526   -9.1773 C   0  0  0  0  0  0  0  0  0  0  0  0
   54.6891   -4.2904   -8.2728 N   0  0  0  0  0  0  0  0  0  0  0  0
   60.3896   -6.0240   -9.4584 C   0  0  0  0  0  0  0  0  0  0  0  0
   61.4935   -6.2807   -8.6138 N   0  0  0  0  0  0  0  0  0  0  0  0
   60.5451   -6.0864  -10.6970 O   0  0  0  0  0  0  0  0  0  0  0  0
   62.4525   -6.1727   -8.9776 H   0  0  0  0  0  0  0  0  0  0  0  0
   61.3716   -6.5788   -7.6240 H   0  0  0  0  0  0  0  0  0  0  0  0
   52.9728   -5.8688   -4.7473 C   0  0  0  0  0  0  0  0  0  0  0  0
   51.6547   -6.1149   -4.4303 C   0  0  0  0  0  0  0  0  0  0  0  0
   50.6588   -5.5311   -5.1995 C   0  0  0  0  0  0  0  0  0  0  0  0
   50.8919   -4.7149   -6.2686 C   0  0  0  0  0  0  0  0  0  0  0  0
   52.2456   -4.4570   -6.6020 C   0  0  0  0  0  0  0  0  0  0  0  0
   53.2349   -5.0300   -5.8462 C   0  0  0  0  0  0  0  0  0  0  0  0
   56.3075   -7.4526   -2.6813 N   0  0  0  0  0  0  0  0  0  0  0  0
   55.4821   -8.3260   -3.4255 C   0  0  0  0  0  0  0  0  0  0  0  0
   54.6007   -7.6921   -4.4393 C   0  0  0  0  0  0  0  0  0  0  0  0
   54.0327   -6.4311   -3.9875 N   0  0  0  0  0  0  0  0  0  0  0  0
   54.5074   -5.7490   -2.8194 C   0  0  0  0  0  0  0  0  0  0  0  0
   55.9563   -6.0780   -2.6339 C   0  0  0  0  0  0  0  0  0  0  0  0
   58.4928   -8.5884   -2.6519 C   0  0  0  0  0  0  0  0  0  0  0  0
   57.6663   -7.5028   -3.2556 C   0  0  0  0  0  0  0  0  0  0  0  0
   49.8774   -4.1418   -7.0224 O   0  0  0  0  0  0  0  0  0  0  0  0
   49.3001   -2.8987   -6.7920 C   0  0  0  0  0  0  0  0  0  0  0  0
   50.2505   -1.8682   -6.7712 F   0  0  0  0  0  0  0  0  0  0  0  0
   48.4299   -2.5911   -7.8091 F   0  0  0  0  0  0  0  0  0  0  0  0
   48.5679   -2.8514   -5.6144 F   0  0  0  0  0  0  0  0  0  0  0  0
 34 35  1  0  0  0
 35 28  1  0  0  0
 28 29  1  0  0  0
 29 30  1  0  0  0
 30 31  1  0  0  0
 31 32  1  0  0  0
 32 33  1  0  0  0
 31 22  1  0  0  0
 22 23  2  0  0  0
 23 24  1  0  0  0
 24 25  2  0  0  0
 25 36  1  0  0  0
 36 37  1  0  0  0
 37 38  1  0  0  0
 37 39  1  0  0  0
 37 40  1  0  0  0
 25 26  1  0  0  0
 26  1  1  0  0  0
  1  3  1  0  0  0
  3  4  2  0  0  0
  4  5  1  0  0  0
  5  6  2  0  0  0
  6  7  1  0  0  0
  7  8  1  0  0  0
  8  9  1  0  0  0
  9 10  1  0  0  0
 10 11  2  0  0  0
 11 12  1  0  0  0
 12 13  1  0  0  0
 12 14  1  0  0  0
 14 15  1  0  0  0
 15 16  2  0  0  0
 10 17  1  0  0  0
 17 18  1  0  0  0
 17 19  2  0  0  0
 26 27  2  0  0  0
 33 28  1  0  0  0
 27 22  1  0  0  0
 16  3  1  0  0  0
 15  6  1  0  0  0
 14  9  2  0  0  0
  1  2  1  0  0  0
 18 20  1  0  0  0
 18 21  1  0  0  0
M  END
> <minimizedAffinity>
-9.61802

> <CNNscore>
0.6457448602

> <CNNaffinity>
7.7858209610

> <CNN_VS>
5.0276536942

> <CNNaffinity_variance>
0.0665878057

$$$$
[H]c1nc(N([H])c2c([H])c(N3C([H])([H])C([H])([H])N(C([H])([H])C([H])([H])[H])C([H])([H])C3([H])[H])c([H])c([H])c2OC(F)(F)F)nc2c1C([H])([H])C([H])([H])c1c(C(=O)N([H])[H])nn(C([H])([H])[H])c1-2


 40 44  0  0  0  0  0  0  0  0999 V2000
   53.6645   -4.0396   -7.6859 N   0  0  0  0  0  0  0  0  0  0  0  0
   52.9450   -3.2450   -7.7821 H   0  0  0  0  0  0  0  0  0  0  0  0
   54.6327   -4.1351   -8.7044 C   0  0  0  0  0  0  0  0  0  0  0  0
   54.5024   -3.7484   -9.9655 N   0  0  0  0  0  0  0  0  0  0  0  0
   55.3849   -3.8241  -10.9366 C   0  0  0  0  0  0  0  0  0  0  0  0
   56.6503   -4.3921  -10.6124 C   0  0  0  0  0  0  0  0  0  0  0  0
   57.6500   -4.5232  -11.6623 C   0  0  0  0  0  0  0  0  0  0  0  0
   58.9820   -4.9866  -11.2530 C   0  0  0  0  0  0  0  0  0  0  0  0
   59.1191   -5.4572   -9.8717 C   0  0  0  0  0  0  0  0  0  0  0  0
   60.2190   -6.0340   -9.2664 C   0  0  0  0  0  0  0  0  0  0  0  0
   59.8798   -6.2788   -7.9885 N   0  0  0  0  0  0  0  0  0  0  0  0
   58.6168   -5.8756   -7.7879 N   0  0  0  0  0  0  0  0  0  0  0  0
   57.8539   -5.9531   -6.5600 C   0  0  0  0  0  0  0  0  0  0  0  0
   58.1308   -5.3680   -8.9330 C   0  0  0  0  0  0  0  0  0  0  0  0
   56.8286   -4.8030   -9.3252 C   0  0  0  0  0  0  0  0  0  0  0  0
   55.8582   -4.6876   -8.3792 N   0  0  0  0  0  0  0  0  0  0  0  0
   61.5177   -6.3389   -9.8459 C   0  0  0  0  0  0  0  0  0  0  0  0
   61.6901   -6.6007  -11.2241 N   0  0  0  0  0  0  0  0  0  0  0  0
   62.5146   -6.3685   -9.0926 O   0  0  0  0  0  0  0  0  0  0  0  0
   62.5112   -7.1364  -11.5446 H   0  0  0  0  0  0  0  0  0  0  0  0
   61.0086   -6.2680  -11.9371 H   0  0  0  0  0  0  0  0  0  0  0  0
   54.4114   -5.9151   -4.5312 C   0  0  0  0  0  0  0  0  0  0  0  0
   53.1936   -6.5324   -4.3457 C   0  0  0  0  0  0  0  0  0  0  0  0
   52.1810   -6.3106   -5.2674 C   0  0  0  0  0  0  0  0  0  0  0  0
   52.3034   -5.5106   -6.3667 C   0  0  0  0  0  0  0  0  0  0  0  0
   53.5536   -4.8721   -6.5655 C   0  0  0  0  0  0  0  0  0  0  0  0
   54.5587   -5.0862   -5.6587 C   0  0  0  0  0  0  0  0  0  0  0  0
   57.7711   -6.4293   -2.0122 N   0  0  0  0  0  0  0  0  0  0  0  0
   57.0309   -7.5656   -2.4109 C   0  0  0  0  0  0  0  0  0  0  0  0
   56.1447   -7.3915   -3.5901 C   0  0  0  0  0  0  0  0  0  0  0  0
   55.4796   -6.0977   -3.6134 N   0  0  0  0  0  0  0  0  0  0  0  0
   55.8682   -5.0182   -2.7538 C   0  0  0  0  0  0  0  0  0  0  0  0
   57.3285   -5.1542   -2.4521 C   0  0  0  0  0  0  0  0  0  0  0  0
   59.8860   -7.6796   -1.8385 C   0  0  0  0  0  0  0  0  0  0  0  0
   59.1489   -6.5761   -2.5207 C   0  0  0  0  0  0  0  0  0  0  0  0
   51.2743   -5.3038   -7.2744 O   0  0  0  0  0  0  0  0  0  0  0  0
   49.9321   -5.1385   -6.9537 C   0  0  0  0  0  0  0  0  0  0  0  0
   49.7391   -4.9000   -5.5857 F   0  0  0  0  0  0  0  0  0  0  0  0
   49.4274   -4.0394   -7.6047 F   0  0  0  0  0  0  0  0  0  0  0  0
   49.1479   -6.2189   -7.3313 F   0  0  0  0  0  0  0  0  0  0  0  0
 34 35  1  0  0  0
 35 28  1  0  0  0
 28 29  1  0  0  0
 29 30  1  0  0  0
 30 31  1  0  0  0
 31 32  1  0  0  0
 32 33  1  0  0  0
 31 22  1  0  0  0
 22 23  2  0  0  0
 23 24  1  0  0  0
 24 25  2  0  0  0
 25 36  1  0  0  0
 36 37  1  0  0  0
 37 38  1  0  0  0
 37 39  1  0  0  0
 37 40  1  0  0  0
 25 26  1  0  0  0
 26  1  1  0  0  0
  1  3  1  0  0  0
  3  4  2  0  0  0
  4  5  1  0  0  0
  5  6  2  0  0  0
  6  7  1  0  0  0
  7  8  1  0  0  0
  8  9  1  0  0  0
  9 10  1  0  0  0
 10 11  2  0  0  0
 11 12  1  0  0  0
 12 13  1  0  0  0
 12 14  1  0  0  0
 14 15  1  0  0  0
 15 16  2  0  0  0
 10 17  1  0  0  0
 17 18  1  0  0  0
 17 19  2  0  0  0
 26 27  2  0  0  0
 33 28  1  0  0  0
 27 22  1  0  0  0
 16  3  1  0  0  0
 15  6  1  0  0  0
 14  9  2  0  0  0
  1  2  1  0  0  0
 18 20  1  0  0  0
 18 21  1  0  0  0
M  END
> <minimizedAffinity>
-6.12658

> <CNNscore>
0.5078122020

> <CNNaffinity>
7.4414434433

> <CNN_VS>
3.7788558006

> <CNNaffinity_variance>
0.3345293999

$$$$
[H]c1nc(N([H])c2c([H])c(N3C([H])([H])C([H])([H])N(C([H])([H])C([H])([H])[H])C([H])([H])C3([H])[H])c([H])c([H])c2OC(F)(F)F)nc2c1C([H])([H])C([H])([H])c1c(C(=O)N([H])[H])nn(C([H])([H])[H])c1-2


 40 44  0  0  0  0  0  0  0  0999 V2000
   56.2915   -4.4202   -9.7418 N   0  0  0  0  0  0  0  0  0  0  0  0
   55.7407   -3.7204  -10.3461 H   0  0  0  0  0  0  0  0  0  0  0  0
   55.6529   -4.8769   -8.5724 C   0  0  0  0  0  0  0  0  0  0  0  0
   56.1282   -5.7486   -7.6943 N   0  0  0  0  0  0  0  0  0  0  0  0
   55.5579   -6.1935   -6.5968 C   0  0  0  0  0  0  0  0  0  0  0  0
   54.2618   -5.6857   -6.2947 C   0  0  0  0  0  0  0  0  0  0  0  0
   53.5783   -6.1708   -5.1046 C   0  0  0  0  0  0  0  0  0  0  0  0
   52.3072   -5.5208   -4.7607 C   0  0  0  0  0  0  0  0  0  0  0  0
   51.7558   -4.5899   -5.7495 C   0  0  0  0  0  0  0  0  0  0  0  0
   50.5417   -3.9311   -5.7247 C   0  0  0  0  0  0  0  0  0  0  0  0
   50.4854   -3.1709   -6.8324 N   0  0  0  0  0  0  0  0  0  0  0  0
   51.6158   -3.3387   -7.5339 N   0  0  0  0  0  0  0  0  0  0  0  0
   51.9719   -2.7129   -8.7899 C   0  0  0  0  0  0  0  0  0  0  0  0
   52.4100   -4.2073   -6.8859 C   0  0  0  0  0  0  0  0  0  0  0  0
   53.7343   -4.7851   -7.1710 C   0  0  0  0  0  0  0  0  0  0  0  0
   54.3950   -4.3774   -8.2878 N   0  0  0  0  0  0  0  0  0  0  0  0
   49.4906   -4.0031   -4.7220 C   0  0  0  0  0  0  0  0  0  0  0  0
   49.3511   -5.1051   -3.8480 N   0  0  0  0  0  0  0  0  0  0  0  0
   48.6842   -3.0523   -4.6342 O   0  0  0  0  0  0  0  0  0  0  0  0
   48.4387   -5.2962   -3.4066 H   0  0  0  0  0  0  0  0  0  0  0  0
   50.1470   -5.7398   -3.6310 H   0  0  0  0  0  0  0  0  0  0  0  0
   59.6859   -5.9839   -9.9892 C   0  0  0  0  0  0  0  0  0  0  0  0
   60.0696   -5.4895  -11.2167 C   0  0  0  0  0  0  0  0  0  0  0  0
   59.1995   -4.6595  -11.9082 C   0  0  0  0  0  0  0  0  0  0  0  0
   57.9669   -4.2882  -11.4542 C   0  0  0  0  0  0  0  0  0  0  0  0
   57.5644   -4.7920  -10.1915 C   0  0  0  0  0  0  0  0  0  0  0  0
   58.4187   -5.6130   -9.5026 C   0  0  0  0  0  0  0  0  0  0  0  0
   61.9758   -8.6864   -7.6763 N   0  0  0  0  0  0  0  0  0  0  0  0
   61.7552   -7.3789   -7.1868 C   0  0  0  0  0  0  0  0  0  0  0  0
   60.6367   -6.6248   -7.8088 C   0  0  0  0  0  0  0  0  0  0  0  0
   60.5318   -6.8464   -9.2429 N   0  0  0  0  0  0  0  0  0  0  0  0
   61.2427   -7.8960   -9.9124 C   0  0  0  0  0  0  0  0  0  0  0  0
   61.4424   -9.0238   -8.9479 C   0  0  0  0  0  0  0  0  0  0  0  0
   61.0224  -10.9368   -7.3709 C   0  0  0  0  0  0  0  0  0  0  0  0
   61.3798   -9.6416   -6.7220 C   0  0  0  0  0  0  0  0  0  0  0  0
   57.1138   -3.4567  -12.1658 O   0  0  0  0  0  0  0  0  0  0  0  0
   56.6395   -3.6910  -13.4511 C   0  0  0  0  0  0  0  0  0  0  0  0
   55.5298   -2.8922  -13.7607 F   0  0  0  0  0  0  0  0  0  0  0  0
   57.6063   -3.3700  -14.3724 F   0  0  0  0  0  0  0  0  0  0  0  0
   56.3059   -5.0196  -13.6716 F   0  0  0  0  0  0  0  0  0  0  0  0
 34 35  1  0  0  0
 35 28  1  0  0  0
 28 29  1  0  0  0
 29 30  1  0  0  0
 30 31  1  0  0  0
 31 32  1  0  0  0
 32 33  1  0  0  0
 31 22  1  0  0  0
 22 23  2  0  0  0
 23 24  1  0  0  0
 24 25  2  0  0  0
 25 36  1  0  0  0
 36 37  1  0  0  0
 37 38  1  0  0  0
 37 39  1  0  0  0
 37 40  1  0  0  0
 25 26  1  0  0  0
 26  1  1  0  0  0
  1  3  1  0  0  0
  3  4  2  0  0  0
  4  5  1  0  0  0
  5  6  2  0  0  0
  6  7  1  0  0  0
  7  8  1  0  0  0
  8  9  1  0  0  0
  9 10  1  0  0  0
 10 11  2  0  0  0
 11 12  1  0  0  0
 12 13  1  0  0  0
 12 14  1  0  0  0
 14 15  1  0  0  0
 15 16  2  0  0  0
 10 17  1  0  0  0
 17 18  1  0  0  0
 17 19  2  0  0  0
 26 27  2  0  0  0
 33 28  1  0  0  0
 27 22  1  0  0  0
 16  3  1  0  0  0
 15  6  1  0  0  0
 14  9  2  0  0  0
  1  2  1  0  0  0
 18 20  1  0  0  0
 18 21  1  0  0  0
M  END
> <minimizedAffinity>
-7.59705

> <CNNscore>
0.4915892482

> <CNNaffinity>
7.3919363022

> <CNN_VS>
3.6337964535

> <CNNaffinity_variance>
0.1441661566

$$$$
[H]c1nc(N([H])c2c([H])c(N3C([H])([H])C([H])([H])N(C([H])([H])C([H])([H])[H])C([H])([H])C3([H])[H])c([H])c([H])c2OC(F)(F)F)nc2c1C([H])([H])C([H])([H])c1c(C(=O)N([H])[H])nn(C([H])([H])[H])c1-2


 40 44  0  0  0  0  0  0  0  0999 V2000
   56.1617   -4.3195   -9.7290 N   0  0  0  0  0  0  0  0  0  0  0  0
   55.6219   -3.5898  -10.3074 H   0  0  0  0  0  0  0  0  0  0  0  0
   55.5151   -4.8093   -8.5775 C   0  0  0  0  0  0  0  0  0  0  0  0
   55.9726   -5.7262   -7.7368 N   0  0  0  0  0  0  0  0  0  0  0  0
   55.3945   -6.2028   -6.6568 C   0  0  0  0  0  0  0  0  0  0  0  0
   54.1103   -5.6796   -6.3311 C   0  0  0  0  0  0  0  0  0  0  0  0
   53.4183   -6.1977   -5.1600 C   0  0  0  0  0  0  0  0  0  0  0  0
   52.1622   -5.5347   -4.7868 C   0  0  0  0  0  0  0  0  0  0  0  0
   51.6298   -4.5526   -5.7356 C   0  0  0  0  0  0  0  0  0  0  0  0
   50.4304   -3.8690   -5.6810 C   0  0  0  0  0  0  0  0  0  0  0  0
   50.3889   -3.0634   -6.7569 N   0  0  0  0  0  0  0  0  0  0  0  0
   51.5143   -3.2271   -7.4674 N   0  0  0  0  0  0  0  0  0  0  0  0
   51.8819   -2.5586   -8.6978 C   0  0  0  0  0  0  0  0  0  0  0  0
   52.2903   -4.1384   -6.8572 C   0  0  0  0  0  0  0  0  0  0  0  0
   53.6011   -4.7328   -7.1688 C   0  0  0  0  0  0  0  0  0  0  0  0
   54.2688   -4.2945   -8.2697 N   0  0  0  0  0  0  0  0  0  0  0  0
   49.3796   -3.9589   -4.6795 C   0  0  0  0  0  0  0  0  0  0  0  0
   49.2468   -5.0715   -3.8179 N   0  0  0  0  0  0  0  0  0  0  0  0
   48.5671   -3.0142   -4.5812 O   0  0  0  0  0  0  0  0  0  0  0  0
   48.3355   -5.2732   -3.3789 H   0  0  0  0  0  0  0  0  0  0  0  0
   50.0467   -5.7035   -3.6078 H   0  0  0  0  0  0  0  0  0  0  0  0
   59.5586   -5.8733  -10.0013 C   0  0  0  0  0  0  0  0  0  0  0  0
   59.9222   -5.3972  -11.2421 C   0  0  0  0  0  0  0  0  0  0  0  0
   59.0386   -4.5819  -11.9339 C   0  0  0  0  0  0  0  0  0  0  0  0
   57.8111   -4.2083  -11.4678 C   0  0  0  0  0  0  0  0  0  0  0  0
   57.4293   -4.6933  -10.1914 C   0  0  0  0  0  0  0  0  0  0  0  0
   58.2972   -5.4997   -9.5021 C   0  0  0  0  0  0  0  0  0  0  0  0
   62.3215   -8.3468   -7.9654 N   0  0  0  0  0  0  0  0  0  0  0  0
   61.3160   -8.9466   -8.7572 C   0  0  0  0  0  0  0  0  0  0  0  0
   60.6523   -8.0668   -9.7532 C   0  0  0  0  0  0  0  0  0  0  0  0
   60.4191   -6.7203   -9.2538 N   0  0  0  0  0  0  0  0  0  0  0  0
   61.0267   -6.2306   -8.0512 C   0  0  0  0  0  0  0  0  0  0  0  0
   62.3366   -6.9310   -7.8624 C   0  0  0  0  0  0  0  0  0  0  0  0
   64.2383   -7.6274   -9.3348 C   0  0  0  0  0  0  0  0  0  0  0  0
   63.6341   -8.7250   -8.5245 C   0  0  0  0  0  0  0  0  0  0  0  0
   56.9441   -3.3917  -12.1800 O   0  0  0  0  0  0  0  0  0  0  0  0
   56.5182   -3.6058  -13.4856 C   0  0  0  0  0  0  0  0  0  0  0  0
   57.5255   -3.3371  -14.4228 F   0  0  0  0  0  0  0  0  0  0  0  0
   56.1828   -4.9265  -13.6578 F   0  0  0  0  0  0  0  0  0  0  0  0
   55.3936   -2.8637  -13.8169 F   0  0  0  0  0  0  0  0  0  0  0  0
 34 35  1  0  0  0
 35 28  1  0  0  0
 28 29  1  0  0  0
 29 30  1  0  0  0
 30 31  1  0  0  0
 31 32  1  0  0  0
 32 33  1  0  0  0
 31 22  1  0  0  0
 22 23  2  0  0  0
 23 24  1  0  0  0
 24 25  2  0  0  0
 25 36  1  0  0  0
 36 37  1  0  0  0
 37 38  1  0  0  0
 37 39  1  0  0  0
 37 40  1  0  0  0
 25 26  1  0  0  0
 26  1  1  0  0  0
  1  3  1  0  0  0
  3  4  2  0  0  0
  4  5  1  0  0  0
  5  6  2  0  0  0
  6  7  1  0  0  0
  7  8  1  0  0  0
  8  9  1  0  0  0
  9 10  1  0  0  0
 10 11  2  0  0  0
 11 12  1  0  0  0
 12 13  1  0  0  0
 12 14  1  0  0  0
 14 15  1  0  0  0
 15 16  2  0  0  0
 10 17  1  0  0  0
 17 18  1  0  0  0
 17 19  2  0  0  0
 26 27  2  0  0  0
 33 28  1  0  0  0
 27 22  1  0  0  0
 16  3  1  0  0  0
 15  6  1  0  0  0
 14  9  2  0  0  0
  1  2  1  0  0  0
 18 20  1  0  0  0
 18 21  1  0  0  0
M  END
> <minimizedAffinity>
-7.72028

> <CNNscore>
0.4760859013

> <CNNaffinity>
7.4474210739

> <CNN_VS>
3.5456120968

> <CNNaffinity_variance>
0.1132498980

$$$$
[H]c1nc(N([H])c2c([H])c(N3C([H])([H])C([H])([H])N(C([H])([H])C([H])([H])[H])C([H])([H])C3([H])[H])c([H])c([H])c2OC(F)(F)F)nc2c1C([H])([H])C([H])([H])c1c(C(=O)N([H])[H])nn(C([H])([H])[H])c1-2


 40 44  0  0  0  0  0  0  0  0999 V2000
   50.7583   -4.7700   -6.2443 N   0  0  0  0  0  0  0  0  0  0  0  0
   49.7503   -4.8812   -6.6049 H   0  0  0  0  0  0  0  0  0  0  0  0
   51.7228   -4.3755   -7.1919 C   0  0  0  0  0  0  0  0  0  0  0  0
   51.5475   -3.5402   -8.2060 N   0  0  0  0  0  0  0  0  0  0  0  0
   52.4253   -3.1534   -9.1046 C   0  0  0  0  0  0  0  0  0  0  0  0
   53.7399   -3.6902   -8.9916 C   0  0  0  0  0  0  0  0  0  0  0  0
   54.7388   -3.3134   -9.9811 C   0  0  0  0  0  0  0  0  0  0  0  0
   56.1109   -3.7817   -9.7472 C   0  0  0  0  0  0  0  0  0  0  0  0
   56.3016   -4.7403   -8.6550 C   0  0  0  0  0  0  0  0  0  0  0  0
   57.4544   -5.4092   -8.2914 C   0  0  0  0  0  0  0  0  0  0  0  0
   57.1495   -6.1621   -7.2198 N   0  0  0  0  0  0  0  0  0  0  0  0
   55.8566   -5.9809   -6.9137 N   0  0  0  0  0  0  0  0  0  0  0  0
   55.1139   -6.5979   -5.8349 C   0  0  0  0  0  0  0  0  0  0  0  0
   55.3169   -5.1111   -7.7839 C   0  0  0  0  0  0  0  0  0  0  0  0
   53.9654   -4.5538   -7.9617 C   0  0  0  0  0  0  0  0  0  0  0  0
   52.9963   -4.9019   -7.0731 N   0  0  0  0  0  0  0  0  0  0  0  0
   58.7708   -5.3491   -8.9070 C   0  0  0  0  0  0  0  0  0  0  0  0
   58.9494   -5.2159  -10.3027 N   0  0  0  0  0  0  0  0  0  0  0  0
   59.7776   -5.4178   -8.1696 O   0  0  0  0  0  0  0  0  0  0  0  0
   59.8355   -5.5167  -10.7365 H   0  0  0  0  0  0  0  0  0  0  0  0
   58.2085   -4.8198  -10.9172 H   0  0  0  0  0  0  0  0  0  0  0  0
   52.3741   -5.7092   -2.9986 C   0  0  0  0  0  0  0  0  0  0  0  0
   51.3213   -5.4597   -2.1455 C   0  0  0  0  0  0  0  0  0  0  0  0
   50.1241   -4.9989   -2.6733 C   0  0  0  0  0  0  0  0  0  0  0  0
   49.9066   -4.7698   -4.0013 C   0  0  0  0  0  0  0  0  0  0  0  0
   50.9847   -5.0246   -4.8862 C   0  0  0  0  0  0  0  0  0  0  0  0
   52.1708   -5.4797   -4.3719 C   0  0  0  0  0  0  0  0  0  0  0  0
   56.1624   -7.1698   -1.8101 N   0  0  0  0  0  0  0  0  0  0  0  0
   55.0099   -7.9371   -1.5252 C   0  0  0  0  0  0  0  0  0  0  0  0
   53.7892   -7.6018   -2.3024 C   0  0  0  0  0  0  0  0  0  0  0  0
   53.6256   -6.1714   -2.5120 N   0  0  0  0  0  0  0  0  0  0  0  0
   54.6757   -5.2312   -2.2502 C   0  0  0  0  0  0  0  0  0  0  0  0
   55.9899   -5.9181   -2.4572 C   0  0  0  0  0  0  0  0  0  0  0  0
   57.8837   -7.1033   -3.5705 C   0  0  0  0  0  0  0  0  0  0  0  0
   57.0372   -7.9645   -2.6942 C   0  0  0  0  0  0  0  0  0  0  0  0
   48.6990   -4.3073   -4.5048 O   0  0  0  0  0  0  0  0  0  0  0  0
   48.4329   -3.0019   -4.9006 C   0  0  0  0  0  0  0  0  0  0  0  0
   48.4973   -2.8461   -6.2924 F   0  0  0  0  0  0  0  0  0  0  0  0
   47.1540   -2.6548   -4.5393 F   0  0  0  0  0  0  0  0  0  0  0  0
   49.2784   -2.0737   -4.3102 F   0  0  0  0  0  0  0  0  0  0  0  0
 34 35  1  0  0  0
 35 28  1  0  0  0
 28 29  1  0  0  0
 29 30  1  0  0  0
 30 31  1  0  0  0
 31 32  1  0  0  0
 32 33  1  0  0  0
 31 22  1  0  0  0
 22 23  2  0  0  0
 23 24  1  0  0  0
 24 25  2  0  0  0
 25 36  1  0  0  0
 36 37  1  0  0  0
 37 38  1  0  0  0
 37 39  1  0  0  0
 37 40  1  0  0  0
 25 26  1  0  0  0
 26  1  1  0  0  0
  1  3  1  0  0  0
  3  4  2  0  0  0
  4  5  1  0  0  0
  5  6  2  0  0  0
  6  7  1  0  0  0
  7  8  1  0  0  0
  8  9  1  0  0  0
  9 10  1  0  0  0
 10 11  2  0  0  0
 11 12  1  0  0  0
 12 13  1  0  0  0
 12 14  1  0  0  0
 14 15  1  0  0  0
 15 16  2  0  0  0
 10 17  1  0  0  0
 17 18  1  0  0  0
 17 19  2  0  0  0
 26 27  2  0  0  0
 33 28  1  0  0  0
 27 22  1  0  0  0
 16  3  1  0  0  0
 15  6  1  0  0  0
 14  9  2  0  0  0
  1  2  1  0  0  0
 18 20  1  0  0  0
 18 21  1  0  0  0
M  END
> <minimizedAffinity>
-8.74257

> <CNNscore>
0.4748091102

> <CNNaffinity>
7.9665346146

> <CNN_VS>
3.7825832367

> <CNNaffinity_variance>
0.1663170159

$$$$
[H]c1nc(N([H])c2c([H])c([H])c(N3C([H])([H])C([H])([H])N(C([H])([H])[H])C([H])([H])C3([H])[H])c([H])c2OC([H])([H])[H])nc2c1N(C([H])([H])[H])C(=O)[C@@]([H])(C([H])([H])C([H])([H])[H])N2C1([H])C([H])([H])C([H])([H])C([H])([H])C1([H])[H]


 36 40  0  0  0  0  0  0  0  0999 V2000
   59.4315   -3.5640  -12.5957 C   0  0  0  0  0  0  0  0  0  0  0  0
   58.0316   -3.8848  -12.4823 N   0  0  0  0  0  0  0  0  0  0  0  0
   57.6041   -4.3323  -11.1652 C   0  0  0  0  0  0  0  0  0  0  0  0
   56.3647   -4.0342  -10.7986 N   0  0  0  0  0  0  0  0  0  0  0  0
   55.9455   -4.4518   -9.5458 C   0  0  0  0  0  0  0  0  0  0  0  0
   56.8047   -5.1241   -8.7856 N   0  0  0  0  0  0  0  0  0  0  0  0
   58.0664   -5.4458   -9.1174 C   0  0  0  0  0  0  0  0  0  0  0  0
   58.4863   -5.0319  -10.3620 C   0  0  0  0  0  0  0  0  0  0  0  0
   59.7883   -5.2809  -10.8624 N   0  0  0  0  0  0  0  0  0  0  0  0
   60.7586   -6.0394  -10.0583 C   0  0  0  0  0  0  0  0  0  0  0  0
   60.1600   -4.8068  -12.1627 C   0  0  0  0  0  0  0  0  0  0  0  0
   61.0034   -5.3700  -12.8630 O   0  0  0  0  0  0  0  0  0  0  0  0
   57.0984   -3.7885  -13.5675 C   0  0  0  0  0  0  0  0  0  0  0  0
   56.3769   -5.0173  -13.9511 C   0  0  0  0  0  0  0  0  0  0  0  0
   55.8327   -4.5704  -15.3403 C   0  0  0  0  0  0  0  0  0  0  0  0
   57.2194   -4.3080  -15.9589 C   0  0  0  0  0  0  0  0  0  0  0  0
   57.7756   -3.3741  -14.8724 C   0  0  0  0  0  0  0  0  0  0  0  0
   61.2096   -2.2652  -13.6923 C   0  0  0  0  0  0  0  0  0  0  0  0
   59.9029   -3.0660  -13.9106 C   0  0  0  0  0  0  0  0  0  0  0  0
   54.6204   -4.0874   -9.2329 N   0  0  0  0  0  0  0  0  0  0  0  0
   54.1221   -3.3906   -9.8859 H   0  0  0  0  0  0  0  0  0  0  0  0
   53.8735   -4.5475   -8.1447 C   0  0  0  0  0  0  0  0  0  0  0  0
   54.1530   -5.6353   -7.3641 C   0  0  0  0  0  0  0  0  0  0  0  0
   53.3547   -6.0477   -6.2871 C   0  0  0  0  0  0  0  0  0  0  0  0
   52.2185   -5.3224   -5.9873 C   0  0  0  0  0  0  0  0  0  0  0  0
   51.8914   -4.2102   -6.7501 C   0  0  0  0  0  0  0  0  0  0  0  0
   52.7060   -3.8427   -7.7989 C   0  0  0  0  0  0  0  0  0  0  0  0
   51.3696   -5.6766   -4.9311 N   0  0  0  0  0  0  0  0  0  0  0  0
   51.2628   -6.9771   -4.3193 C   0  0  0  0  0  0  0  0  0  0  0  0
   51.7397   -6.8331   -2.8912 C   0  0  0  0  0  0  0  0  0  0  0  0
   51.1475   -5.6875   -2.2317 N   0  0  0  0  0  0  0  0  0  0  0  0
   52.1474   -4.6778   -1.9376 C   0  0  0  0  0  0  0  0  0  0  0  0
   50.0356   -5.1300   -2.9809 C   0  0  0  0  0  0  0  0  0  0  0  0
   50.4824   -4.6500   -4.3499 C   0  0  0  0  0  0  0  0  0  0  0  0
   52.3906   -2.7317   -8.5701 O   0  0  0  0  0  0  0  0  0  0  0  0
   51.2736   -1.9453   -8.2807 C   0  0  0  0  0  0  0  0  0  0  0  0
 18 19  1  0  0  0
 19  1  1  0  0  0
  1  2  1  0  0  0
  2 13  1  0  0  0
 13 14  1  0  0  0
 14 15  1  0  0  0
 15 16  1  0  0  0
 16 17  1  0  0  0
  2  3  1  0  0  0
  3  4  2  0  0  0
  4  5  1  0  0  0
  5 20  1  0  0  0
 20 22  1  0  0  0
 22 23  2  0  0  0
 23 24  1  0  0  0
 24 25  2  0  0  0
 25 26  1  0  0  0
 26 27  2  0  0  0
 27 35  1  0  0  0
 35 36  1  0  0  0
 25 28  1  0  0  0
 28 29  1  0  0  0
 29 30  1  0  0  0
 30 31  1  0  0  0
 31 32  1  0  0  0
 31 33  1  0  0  0
 33 34  1  0  0  0
  5  6  2  0  0  0
  6  7  1  0  0  0
  7  8  2  0  0  0
  8  9  1  0  0  0
  9 10  1  0  0  0
  9 11  1  0  0  0
 11 12  2  0  0  0
 11  1  1  0  0  0
 17 13  1  0  0  0
  8  3  1  0  0  0
 27 22  1  0  0  0
 34 28  1  0  0  0
 20 21  1  0  0  0
M  END
> <minimizedAffinity>
-6.14535

> <CNNscore>
0.4266555607

> <CNNaffinity>
7.0237207413

> <CNN_VS>
2.9967095852

> <CNNaffinity_variance>
0.0534415729

$$$$
[H]c1nc(N([H])c2c([H])c([H])c(N3C([H])([H])C([H])([H])N(C([H])([H])[H])C([H])([H])C3([H])[H])c([H])c2OC([H])([H])[H])nc2c1N(C([H])([H])[H])C(=O)[C@@]([H])(C([H])([H])C([H])([H])[H])N2C1([H])C([H])([H])C([H])([H])C([H])([H])C1([H])[H]


 36 40  0  0  0  0  0  0  0  0999 V2000
   53.3092   -5.4873   -3.6887 C   0  0  0  0  0  0  0  0  0  0  0  0
   54.2728   -5.7367   -4.7303 N   0  0  0  0  0  0  0  0  0  0  0  0
   53.9174   -5.2121   -6.0404 C   0  0  0  0  0  0  0  0  0  0  0  0
   54.9130   -4.8240   -6.8262 N   0  0  0  0  0  0  0  0  0  0  0  0
   54.5886   -4.3198   -8.0753 C   0  0  0  0  0  0  0  0  0  0  0  0
   53.3045   -4.2538   -8.4141 N   0  0  0  0  0  0  0  0  0  0  0  0
   52.2670   -4.6347   -7.6498 C   0  0  0  0  0  0  0  0  0  0  0  0
   52.5861   -5.1360   -6.4074 C   0  0  0  0  0  0  0  0  0  0  0  0
   51.6125   -5.5736   -5.4756 N   0  0  0  0  0  0  0  0  0  0  0  0
   50.1839   -5.5349   -5.8235 C   0  0  0  0  0  0  0  0  0  0  0  0
   52.0182   -6.0708   -4.1942 C   0  0  0  0  0  0  0  0  0  0  0  0
   51.3643   -6.9034   -3.5633 O   0  0  0  0  0  0  0  0  0  0  0  0
   55.5004   -6.4512   -4.5300 C   0  0  0  0  0  0  0  0  0  0  0  0
   55.4276   -7.7304   -3.7979 C   0  0  0  0  0  0  0  0  0  0  0  0
   56.9384   -7.9244   -3.4727 C   0  0  0  0  0  0  0  0  0  0  0  0
   57.0786   -6.6206   -2.6635 C   0  0  0  0  0  0  0  0  0  0  0  0
   56.5047   -5.6479   -3.7059 C   0  0  0  0  0  0  0  0  0  0  0  0
   53.1365   -4.9353   -1.2978 C   0  0  0  0  0  0  0  0  0  0  0  0
   53.6493   -5.9703   -2.3285 C   0  0  0  0  0  0  0  0  0  0  0  0
   55.7033   -3.9240   -8.8417 N   0  0  0  0  0  0  0  0  0  0  0  0
   55.6353   -2.9988   -9.3891 H   0  0  0  0  0  0  0  0  0  0  0  0
   56.9093   -4.6199   -8.9641 C   0  0  0  0  0  0  0  0  0  0  0  0
   57.6910   -5.0848   -7.9424 C   0  0  0  0  0  0  0  0  0  0  0  0
   58.8981   -5.7725   -8.1352 C   0  0  0  0  0  0  0  0  0  0  0  0
   59.3336   -5.9997   -9.4259 C   0  0  0  0  0  0  0  0  0  0  0  0
   58.5758   -5.5475  -10.4970 C   0  0  0  0  0  0  0  0  0  0  0  0
   57.3962   -4.8763  -10.2589 C   0  0  0  0  0  0  0  0  0  0  0  0
   60.5311   -6.6737   -9.6969 N   0  0  0  0  0  0  0  0  0  0  0  0
   61.7784   -6.0730  -10.0973 C   0  0  0  0  0  0  0  0  0  0  0  0
   62.7677   -6.3254   -8.9814 C   0  0  0  0  0  0  0  0  0  0  0  0
   62.7531   -7.7057   -8.5421 N   0  0  0  0  0  0  0  0  0  0  0  0
   62.2486   -7.8182   -7.1861 C   0  0  0  0  0  0  0  0  0  0  0  0
   62.0234   -8.5697   -9.4527 C   0  0  0  0  0  0  0  0  0  0  0  0
   60.5710   -8.1435   -9.5678 C   0  0  0  0  0  0  0  0  0  0  0  0
   56.6281   -4.4187  -11.3215 O   0  0  0  0  0  0  0  0  0  0  0  0
   57.1944   -4.1943  -12.5780 C   0  0  0  0  0  0  0  0  0  0  0  0
 18 19  1  0  0  0
 19  1  1  0  0  0
  1  2  1  0  0  0
  2 13  1  0  0  0
 13 14  1  0  0  0
 14 15  1  0  0  0
 15 16  1  0  0  0
 16 17  1  0  0  0
  2  3  1  0  0  0
  3  4  2  0  0  0
  4  5  1  0  0  0
  5 20  1  0  0  0
 20 22  1  0  0  0
 22 23  2  0  0  0
 23 24  1  0  0  0
 24 25  2  0  0  0
 25 26  1  0  0  0
 26 27  2  0  0  0
 27 35  1  0  0  0
 35 36  1  0  0  0
 25 28  1  0  0  0
 28 29  1  0  0  0
 29 30  1  0  0  0
 30 31  1  0  0  0
 31 32  1  0  0  0
 31 33  1  0  0  0
 33 34  1  0  0  0
  5  6  2  0  0  0
  6  7  1  0  0  0
  7  8  2  0  0  0
  8  9  1  0  0  0
  9 10  1  0  0  0
  9 11  1  0  0  0
 11 12  2  0  0  0
 11  1  1  0  0  0
 17 13  1  0  0  0
  8  3  1  0  0  0
 27 22  1  0  0  0
 34 28  1  0  0  0
 20 21  1  0  0  0
M  END
> <minimizedAffinity>
-7.55630

> <CNNscore>
0.4001765549

> <CNNaffinity>
7.1686639786

> <CNN_VS>
2.8687312603

> <CNNaffinity_variance>
0.1038244739

$$$$
[H]c1nc(N([H])c2c([H])c([H])c(N3C([H])([H])C([H])([H])N(C([H])([H])[H])C([H])([H])C3([H])[H])c([H])c2OC([H])([H])[H])nc2c1N(C([H])([H])[H])C(=O)[C@@]([H])(C([H])([H])C([H])([H])[H])N2C1([H])C([H])([H])C([H])([H])C([H])([H])C1([H])[H]


 36 40  0  0  0  0  0  0  0  0999 V2000
   49.7414   -4.3484   -7.1603 C   0  0  0  0  0  0  0  0  0  0  0  0
   51.1541   -4.0783   -7.2438 N   0  0  0  0  0  0  0  0  0  0  0  0
   51.9729   -4.7531   -6.2477 C   0  0  0  0  0  0  0  0  0  0  0  0
   53.2057   -5.0876   -6.6051 N   0  0  0  0  0  0  0  0  0  0  0  0
   53.9953   -5.7332   -5.6673 C   0  0  0  0  0  0  0  0  0  0  0  0
   53.4755   -5.9798   -4.4685 N   0  0  0  0  0  0  0  0  0  0  0  0
   52.2341   -5.6593   -4.0665 C   0  0  0  0  0  0  0  0  0  0  0  0
   51.4466   -5.0177   -4.9964 C   0  0  0  0  0  0  0  0  0  0  0  0
   50.1118   -4.6189   -4.7377 N   0  0  0  0  0  0  0  0  0  0  0  0
   49.5104   -4.8564   -3.4165 C   0  0  0  0  0  0  0  0  0  0  0  0
   49.3465   -3.9678   -5.7596 C   0  0  0  0  0  0  0  0  0  0  0  0
   48.4439   -3.1667   -5.5098 O   0  0  0  0  0  0  0  0  0  0  0  0
   51.7461   -3.2089   -8.2192 C   0  0  0  0  0  0  0  0  0  0  0  0
   52.3333   -3.8371   -9.4185 C   0  0  0  0  0  0  0  0  0  0  0  0
   53.1717   -2.6371   -9.9503 C   0  0  0  0  0  0  0  0  0  0  0  0
   54.0449   -2.5026   -8.6879 C   0  0  0  0  0  0  0  0  0  0  0  0
   52.9189   -2.4162   -7.6455 C   0  0  0  0  0  0  0  0  0  0  0  0
   49.1173   -2.1838   -8.1482 C   0  0  0  0  0  0  0  0  0  0  0  0
   48.8738   -3.7122   -8.1809 C   0  0  0  0  0  0  0  0  0  0  0  0
   55.2858   -6.0596   -6.1306 N   0  0  0  0  0  0  0  0  0  0  0  0
   55.9191   -6.6456   -5.4858 H   0  0  0  0  0  0  0  0  0  0  0  0
   55.8362   -5.6963   -7.3630 C   0  0  0  0  0  0  0  0  0  0  0  0
   55.5125   -6.2151   -8.5864 C   0  0  0  0  0  0  0  0  0  0  0  0
   56.1104   -5.8089   -9.7884 C   0  0  0  0  0  0  0  0  0  0  0  0
   57.0833   -4.8297   -9.7479 C   0  0  0  0  0  0  0  0  0  0  0  0
   57.4473   -4.2719   -8.5304 C   0  0  0  0  0  0  0  0  0  0  0  0
   56.8321   -4.7027   -7.3751 C   0  0  0  0  0  0  0  0  0  0  0  0
   57.7290   -4.3772  -10.9055 N   0  0  0  0  0  0  0  0  0  0  0  0
   58.2743   -5.1985  -11.9568 C   0  0  0  0  0  0  0  0  0  0  0  0
   57.4677   -4.9117  -13.2037 C   0  0  0  0  0  0  0  0  0  0  0  0
   57.2984   -3.4907  -13.4283 N   0  0  0  0  0  0  0  0  0  0  0  0
   55.9096   -3.0983  -13.2757 C   0  0  0  0  0  0  0  0  0  0  0  0
   58.1711   -2.6889  -12.5894 C   0  0  0  0  0  0  0  0  0  0  0  0
   57.8854   -2.9249  -11.1173 C   0  0  0  0  0  0  0  0  0  0  0  0
   57.1866   -4.1527   -6.1502 O   0  0  0  0  0  0  0  0  0  0  0  0
   57.2234   -2.7694   -5.9632 C   0  0  0  0  0  0  0  0  0  0  0  0
 18 19  1  0  0  0
 19  1  1  0  0  0
  1  2  1  0  0  0
  2 13  1  0  0  0
 13 14  1  0  0  0
 14 15  1  0  0  0
 15 16  1  0  0  0
 16 17  1  0  0  0
  2  3  1  0  0  0
  3  4  2  0  0  0
  4  5  1  0  0  0
  5 20  1  0  0  0
 20 22  1  0  0  0
 22 23  2  0  0  0
 23 24  1  0  0  0
 24 25  2  0  0  0
 25 26  1  0  0  0
 26 27  2  0  0  0
 27 35  1  0  0  0
 35 36  1  0  0  0
 25 28  1  0  0  0
 28 29  1  0  0  0
 29 30  1  0  0  0
 30 31  1  0  0  0
 31 32  1  0  0  0
 31 33  1  0  0  0
 33 34  1  0  0  0
  5  6  2  0  0  0
  6  7  1  0  0  0
  7  8  2  0  0  0
  8  9  1  0  0  0
  9 10  1  0  0  0
  9 11  1  0  0  0
 11 12  2  0  0  0
 11  1  1  0  0  0
 17 13  1  0  0  0
  8  3  1  0  0  0
 27 22  1  0  0  0
 34 28  1  0  0  0
 20 21  1  0  0  0
M  END
> <minimizedAffinity>
9.75454

> <CNNscore>
0.3270005584

> <CNNaffinity>
6.6630539894

> <CNN_VS>
2.1788222790

> <CNNaffinity_variance>
0.2911754251

$$$$
[H]c1nc(N([H])c2c([H])c([H])c(N3C([H])([H])C([H])([H])N(C([H])([H])[H])C([H])([H])C3([H])[H])c([H])c2OC([H])([H])[H])nc2c1N(C([H])([H])[H])C(=O)[C@@]([H])(C([H])([H])C([H])([H])[H])N2C1([H])C([H])([H])C([H])([H])C([H])([H])C1([H])[H]


 36 40  0  0  0  0  0  0  0  0999 V2000
   55.2362   -3.6843   -8.7542 C   0  0  0  0  0  0  0  0  0  0  0  0
   56.0240   -4.8250   -8.3621 N   0  0  0  0  0  0  0  0  0  0  0  0
   57.2291   -5.0442   -9.1478 C   0  0  0  0  0  0  0  0  0  0  0  0
   58.2663   -5.5873   -8.5244 N   0  0  0  0  0  0  0  0  0  0  0  0
   59.4212   -5.7990   -9.2599 C   0  0  0  0  0  0  0  0  0  0  0  0
   59.4248   -5.4476  -10.5423 N   0  0  0  0  0  0  0  0  0  0  0  0
   58.3986   -4.8952  -11.2112 C   0  0  0  0  0  0  0  0  0  0  0  0
   57.2492   -4.6832  -10.4828 C   0  0  0  0  0  0  0  0  0  0  0  0
   56.0799   -4.1024  -11.0331 N   0  0  0  0  0  0  0  0  0  0  0  0
   56.0400   -3.7204  -12.4529 C   0  0  0  0  0  0  0  0  0  0  0  0
   54.9244   -3.8986  -10.2101 C   0  0  0  0  0  0  0  0  0  0  0  0
   53.7765   -3.8992  -10.6587 O   0  0  0  0  0  0  0  0  0  0  0  0
   55.6747   -5.7065   -7.2857 C   0  0  0  0  0  0  0  0  0  0  0  0
   54.2559   -6.0923   -7.1597 C   0  0  0  0  0  0  0  0  0  0  0  0
   54.2759   -6.6684   -5.7128 C   0  0  0  0  0  0  0  0  0  0  0  0
   54.7450   -5.3613   -5.0452 C   0  0  0  0  0  0  0  0  0  0  0  0
   55.9801   -5.0944   -5.9200 C   0  0  0  0  0  0  0  0  0  0  0  0
   53.2517   -2.2365   -8.6272 C   0  0  0  0  0  0  0  0  0  0  0  0
   54.0197   -3.4005   -7.9552 C   0  0  0  0  0  0  0  0  0  0  0  0
   60.4759   -6.3714   -8.5205 N   0  0  0  0  0  0  0  0  0  0  0  0
   60.5936   -6.0682   -7.4936 H   0  0  0  0  0  0  0  0  0  0  0  0
   61.3988   -7.3099   -8.9909 C   0  0  0  0  0  0  0  0  0  0  0  0
   61.1228   -8.5719   -9.4403 C   0  0  0  0  0  0  0  0  0  0  0  0
   62.1008   -9.4690   -9.8941 C   0  0  0  0  0  0  0  0  0  0  0  0
   63.4220   -9.0672   -9.8921 C   0  0  0  0  0  0  0  0  0  0  0  0
   63.7535   -7.7958   -9.4452 C   0  0  0  0  0  0  0  0  0  0  0  0
   62.7583   -6.9486   -9.0086 C   0  0  0  0  0  0  0  0  0  0  0  0
   64.4542   -9.9094  -10.3246 N   0  0  0  0  0  0  0  0  0  0  0  0
   65.4952  -10.4763   -9.5050 C   0  0  0  0  0  0  0  0  0  0  0  0
   65.2911  -11.9750   -9.5071 C   0  0  0  0  0  0  0  0  0  0  0  0
   65.0770  -12.4940  -10.8424 N   0  0  0  0  0  0  0  0  0  0  0  0
   63.7276  -13.0055  -10.9952 C   0  0  0  0  0  0  0  0  0  0  0  0
   65.3951  -11.5216  -11.8728 C   0  0  0  0  0  0  0  0  0  0  0  0
   64.5211  -10.2866  -11.7501 C   0  0  0  0  0  0  0  0  0  0  0  0
   63.0760   -5.6737   -8.5591 O   0  0  0  0  0  0  0  0  0  0  0  0
   64.1719   -5.4554   -7.7217 C   0  0  0  0  0  0  0  0  0  0  0  0
 18 19  1  0  0  0
 19  1  1  0  0  0
  1  2  1  0  0  0
  2 13  1  0  0  0
 13 14  1  0  0  0
 14 15  1  0  0  0
 15 16  1  0  0  0
 16 17  1  0  0  0
  2  3  1  0  0  0
  3  4  2  0  0  0
  4  5  1  0  0  0
  5 20  1  0  0  0
 20 22  1  0  0  0
 22 23  2  0  0  0
 23 24  1  0  0  0
 24 25  2  0  0  0
 25 26  1  0  0  0
 26 27  2  0  0  0
 27 35  1  0  0  0
 35 36  1  0  0  0
 25 28  1  0  0  0
 28 29  1  0  0  0
 29 30  1  0  0  0
 30 31  1  0  0  0
 31 32  1  0  0  0
 31 33  1  0  0  0
 33 34  1  0  0  0
  5  6  2  0  0  0
  6  7  1  0  0  0
  7  8  2  0  0  0
  8  9  1  0  0  0
  9 10  1  0  0  0
  9 11  1  0  0  0
 11 12  2  0  0  0
 11  1  1  0  0  0
 17 13  1  0  0  0
  8  3  1  0  0  0
 27 22  1  0  0  0
 34 28  1  0  0  0
 20 21  1  0  0  0
M  END
> <minimizedAffinity>
-6.61540

> <CNNscore>
0.3151263297

> <CNNaffinity>
6.2810163498

> <CNN_VS>
1.9793136120

> <CNNaffinity_variance>
0.0509297848

$$$$
[H]c1nc(N([H])c2c([H])c([H])c(N3C([H])([H])C([H])([H])N(C([H])([H])[H])C([H])([H])C3([H])[H])c([H])c2OC([H])([H])[H])nc2c1N(C([H])([H])[H])C(=O)[C@@]([H])(C([H])([H])C([H])([H])[H])N2C1([H])C([H])([H])C([H])([H])C([H])([H])C1([H])[H]


 36 40  0  0  0  0  0  0  0  0999 V2000
   51.5993   -6.2437   -5.8855 C   0  0  0  0  0  0  0  0  0  0  0  0
   52.6410   -5.5061   -6.5535 N   0  0  0  0  0  0  0  0  0  0  0  0
   53.9747   -5.6770   -5.9967 C   0  0  0  0  0  0  0  0  0  0  0  0
   54.9955   -5.6039   -6.8405 N   0  0  0  0  0  0  0  0  0  0  0  0
   56.2708   -5.7675   -6.3242 C   0  0  0  0  0  0  0  0  0  0  0  0
   56.3987   -5.9876   -5.0190 N   0  0  0  0  0  0  0  0  0  0  0  0
   55.3935   -6.0695   -4.1312 C   0  0  0  0  0  0  0  0  0  0  0  0
   54.1246   -5.9074   -4.6413 C   0  0  0  0  0  0  0  0  0  0  0  0
   52.9552   -5.9734   -3.8439 N   0  0  0  0  0  0  0  0  0  0  0  0
   53.0590   -6.1944   -2.3934 C   0  0  0  0  0  0  0  0  0  0  0  0
   51.6654   -5.8095   -4.4467 C   0  0  0  0  0  0  0  0  0  0  0  0
   50.6965   -5.3526   -3.8373 O   0  0  0  0  0  0  0  0  0  0  0  0
   52.4174   -4.6512   -7.6835 C   0  0  0  0  0  0  0  0  0  0  0  0
   53.4367   -3.6224   -7.9664 C   0  0  0  0  0  0  0  0  0  0  0  0
   52.6272   -2.7247   -8.9487 C   0  0  0  0  0  0  0  0  0  0  0  0
   51.5050   -2.3925   -7.9465 C   0  0  0  0  0  0  0  0  0  0  0  0
   51.1392   -3.8279   -7.5367 C   0  0  0  0  0  0  0  0  0  0  0  0
   50.0255   -7.2651   -7.4763 C   0  0  0  0  0  0  0  0  0  0  0  0
   50.2304   -6.1297   -6.4442 C   0  0  0  0  0  0  0  0  0  0  0  0
   57.2955   -5.6834   -7.2882 N   0  0  0  0  0  0  0  0  0  0  0  0
   58.2592   -6.0933   -7.0360 H   0  0  0  0  0  0  0  0  0  0  0  0
   57.1865   -5.1150   -8.5606 C   0  0  0  0  0  0  0  0  0  0  0  0
   56.2270   -4.2364   -8.9827 C   0  0  0  0  0  0  0  0  0  0  0  0
   56.1713   -3.7071  -10.2804 C   0  0  0  0  0  0  0  0  0  0  0  0
   57.1347   -4.0871  -11.1939 C   0  0  0  0  0  0  0  0  0  0  0  0
   58.1298   -4.9767  -10.8141 C   0  0  0  0  0  0  0  0  0  0  0  0
   58.1442   -5.4706   -9.5278 C   0  0  0  0  0  0  0  0  0  0  0  0
   57.1408   -3.6055  -12.5091 N   0  0  0  0  0  0  0  0  0  0  0  0
   58.3026   -3.3787  -13.3311 C   0  0  0  0  0  0  0  0  0  0  0  0
   58.2212   -4.3502  -14.4875 C   0  0  0  0  0  0  0  0  0  0  0  0
   56.9087   -4.3593  -15.1003 N   0  0  0  0  0  0  0  0  0  0  0  0
   56.2401   -5.6296  -14.8873 C   0  0  0  0  0  0  0  0  0  0  0  0
   56.0848   -3.2467  -14.6627 C   0  0  0  0  0  0  0  0  0  0  0  0
   55.8553   -3.2907  -13.1627 C   0  0  0  0  0  0  0  0  0  0  0  0
   59.1344   -6.3613   -9.1344 O   0  0  0  0  0  0  0  0  0  0  0  0
   60.4657   -6.1739   -9.5119 C   0  0  0  0  0  0  0  0  0  0  0  0
 18 19  1  0  0  0
 19  1  1  0  0  0
  1  2  1  0  0  0
  2 13  1  0  0  0
 13 14  1  0  0  0
 14 15  1  0  0  0
 15 16  1  0  0  0
 16 17  1  0  0  0
  2  3  1  0  0  0
  3  4  2  0  0  0
  4  5  1  0  0  0
  5 20  1  0  0  0
 20 22  1  0  0  0
 22 23  2  0  0  0
 23 24  1  0  0  0
 24 25  2  0  0  0
 25 26  1  0  0  0
 26 27  2  0  0  0
 27 35  1  0  0  0
 35 36  1  0  0  0
 25 28  1  0  0  0
 28 29  1  0  0  0
 29 30  1  0  0  0
 30 31  1  0  0  0
 31 32  1  0  0  0
 31 33  1  0  0  0
 33 34  1  0  0  0
  5  6  2  0  0  0
  6  7  1  0  0  0
  7  8  2  0  0  0
  8  9  1  0  0  0
  9 10  1  0  0  0
  9 11  1  0  0  0
 11 12  2  0  0  0
 11  1  1  0  0  0
 17 13  1  0  0  0
  8  3  1  0  0  0
 27 22  1  0  0  0
 34 28  1  0  0  0
 20 21  1  0  0  0
M  END
> <minimizedAffinity>
-8.41580

> <CNNscore>
0.2875460982

> <CNNaffinity>
7.4400725365

> <CNN_VS>
2.1393637657

> <CNNaffinity_variance>
0.0182839781

$$$$
[H]c1nc(N([H])c2c([H])c([H])c(N3C([H])([H])C([H])([H])N(C([H])([H])[H])C([H])([H])C3([H])[H])c([H])c2OC([H])([H])[H])nc2c1N(C([H])([H])[H])C(=O)[C@@]([H])(C([H])([H])C([H])([H])[H])N2C1([H])C([H])([H])C([H])([H])C([H])([H])C1([H])[H]


 36 40  0  0  0  0  0  0  0  0999 V2000
   54.8088   -7.7266   -2.7395 C   0  0  0  0  0  0  0  0  0  0  0  0
   55.3088   -7.1437   -3.9585 N   0  0  0  0  0  0  0  0  0  0  0  0
   56.7489   -6.9384   -4.0009 C   0  0  0  0  0  0  0  0  0  0  0  0
   57.3385   -7.0364   -5.1850 N   0  0  0  0  0  0  0  0  0  0  0  0
   58.7098   -6.8460   -5.2394 C   0  0  0  0  0  0  0  0  0  0  0  0
   59.3540   -6.5772   -4.1076 N   0  0  0  0  0  0  0  0  0  0  0  0
   58.7966   -6.4699   -2.8897 C   0  0  0  0  0  0  0  0  0  0  0  0
   57.4336   -6.6589   -2.8322 C   0  0  0  0  0  0  0  0  0  0  0  0
   56.6924   -6.5893   -1.6266 N   0  0  0  0  0  0  0  0  0  0  0  0
   57.3679   -6.2736   -0.3587 C   0  0  0  0  0  0  0  0  0  0  0  0
   55.2767   -6.8116   -1.6409 C   0  0  0  0  0  0  0  0  0  0  0  0
   54.5116   -6.2971   -0.8231 O   0  0  0  0  0  0  0  0  0  0  0  0
   54.4779   -6.7741   -5.0679 C   0  0  0  0  0  0  0  0  0  0  0  0
   54.5542   -5.3762   -5.5347 C   0  0  0  0  0  0  0  0  0  0  0  0
   53.2672   -5.3294   -6.4107 C   0  0  0  0  0  0  0  0  0  0  0  0
   52.2995   -5.6693   -5.2608 C   0  0  0  0  0  0  0  0  0  0  0  0
   52.9926   -6.9444   -4.7550 C   0  0  0  0  0  0  0  0  0  0  0  0
   53.1301   -9.5217   -2.6397 C   0  0  0  0  0  0  0  0  0  0  0  0
   53.3512   -7.9898   -2.6685 C   0  0  0  0  0  0  0  0  0  0  0  0
   59.2565   -6.9754   -6.5321 N   0  0  0  0  0  0  0  0  0  0  0  0
   60.0917   -7.6432   -6.6611 H   0  0  0  0  0  0  0  0  0  0  0  0
   58.8164   -6.3164   -7.6835 C   0  0  0  0  0  0  0  0  0  0  0  0
   59.1883   -6.5872   -8.9716 C   0  0  0  0  0  0  0  0  0  0  0  0
   58.7122   -5.8802  -10.0855 C   0  0  0  0  0  0  0  0  0  0  0  0
   57.8160   -4.8491   -9.8836 C   0  0  0  0  0  0  0  0  0  0  0  0
   57.4078   -4.5352   -8.5949 C   0  0  0  0  0  0  0  0  0  0  0  0
   57.9025   -5.2578   -7.5309 C   0  0  0  0  0  0  0  0  0  0  0  0
   57.3018   -4.0945  -10.9456 N   0  0  0  0  0  0  0  0  0  0  0  0
   58.0545   -3.2459  -11.8346 C   0  0  0  0  0  0  0  0  0  0  0  0
   57.9593   -3.8581  -13.2144 C   0  0  0  0  0  0  0  0  0  0  0  0
   56.5988   -4.2176  -13.5584 N   0  0  0  0  0  0  0  0  0  0  0  0
   56.4486   -5.6570  -13.6649 C   0  0  0  0  0  0  0  0  0  0  0  0
   55.6266   -3.6494  -12.6418 C   0  0  0  0  0  0  0  0  0  0  0  0
   55.8533   -4.1453  -11.2250 C   0  0  0  0  0  0  0  0  0  0  0  0
   57.5022   -4.9545   -6.2362 O   0  0  0  0  0  0  0  0  0  0  0  0
   56.2236   -4.4584   -5.9732 C   0  0  0  0  0  0  0  0  0  0  0  0
 18 19  1  0  0  0
 19  1  1  0  0  0
  1  2  1  0  0  0
  2 13  1  0  0  0
 13 14  1  0  0  0
 14 15  1  0  0  0
 15 16  1  0  0  0
 16 17  1  0  0  0
  2  3  1  0  0  0
  3  4  2  0  0  0
  4  5  1  0  0  0
  5 20  1  0  0  0
 20 22  1  0  0  0
 22 23  2  0  0  0
 23 24  1  0  0  0
 24 25  2  0  0  0
 25 26  1  0  0  0
 26 27  2  0  0  0
 27 35  1  0  0  0
 35 36  1  0  0  0
 25 28  1  0  0  0
 28 29  1  0  0  0
 29 30  1  0  0  0
 30 31  1  0  0  0
 31 32  1  0  0  0
 31 33  1  0  0  0
 33 34  1  0  0  0
  5  6  2  0  0  0
  6  7  1  0  0  0
  7  8  2  0  0  0
  8  9  1  0  0  0
  9 10  1  0  0  0
  9 11  1  0  0  0
 11 12  2  0  0  0
 11  1  1  0  0  0
 17 13  1  0  0  0
  8  3  1  0  0  0
 27 22  1  0  0  0
 34 28  1  0  0  0
 20 21  1  0  0  0
M  END
> <minimizedAffinity>
2.85643

> <CNNscore>
0.2680279016

> <CNNaffinity>
6.4292640686

> <CNN_VS>
1.7232221365

> <CNNaffinity_variance>
0.5016618967

$$$$
[H]c1nc(N([H])c2c([H])c([H])c(N3C([H])([H])C([H])([H])N(C([H])([H])[H])C([H])([H])C3([H])[H])c([H])c2OC([H])([H])[H])nc2c1N(C([H])([H])[H])C(=O)[C@@]([H])(C([H])([H])C([H])([H])[H])N2C1([H])C([H])([H])C([H])([H])C([H])([H])C1([H])[H]


 36 40  0  0  0  0  0  0  0  0999 V2000
   51.9051   -6.1325   -6.1700 C   0  0  0  0  0  0  0  0  0  0  0  0
   52.6984   -5.2498   -6.9868 N   0  0  0  0  0  0  0  0  0  0  0  0
   54.1370   -5.3542   -6.7935 C   0  0  0  0  0  0  0  0  0  0  0  0
   54.9069   -5.1167   -7.8471 N   0  0  0  0  0  0  0  0  0  0  0  0
   56.2785   -5.2154   -7.6779 C   0  0  0  0  0  0  0  0  0  0  0  0
   56.7432   -5.5409   -6.4753 N   0  0  0  0  0  0  0  0  0  0  0  0
   56.0000   -5.7897   -5.3839 C   0  0  0  0  0  0  0  0  0  0  0  0
   54.6362   -5.6927   -5.5489 C   0  0  0  0  0  0  0  0  0  0  0  0
   53.7107   -5.9318   -4.5029 N   0  0  0  0  0  0  0  0  0  0  0  0
   54.1886   -6.2736   -3.1545 C   0  0  0  0  0  0  0  0  0  0  0  0
   52.3034   -5.8264   -4.7520 C   0  0  0  0  0  0  0  0  0  0  0  0
   51.4923   -5.5123   -3.8789 O   0  0  0  0  0  0  0  0  0  0  0  0
   52.1462   -4.3186   -7.9279 C   0  0  0  0  0  0  0  0  0  0  0  0
   53.0301   -3.2407   -8.4119 C   0  0  0  0  0  0  0  0  0  0  0  0
   51.9612   -2.2960   -9.0372 C   0  0  0  0  0  0  0  0  0  0  0  0
   51.1817   -2.0753   -7.7266 C   0  0  0  0  0  0  0  0  0  0  0  0
   50.9624   -3.5482   -7.3463 C   0  0  0  0  0  0  0  0  0  0  0  0
   50.0438   -7.1640   -7.4038 C   0  0  0  0  0  0  0  0  0  0  0  0
   50.4355   -6.0874   -6.3627 C   0  0  0  0  0  0  0  0  0  0  0  0
   57.0213   -4.9557   -8.8473 N   0  0  0  0  0  0  0  0  0  0  0  0
   56.5544   -4.3691   -9.6207 H   0  0  0  0  0  0  0  0  0  0  0  0
   58.3249   -5.3868   -9.1092 C   0  0  0  0  0  0  0  0  0  0  0  0
   59.2423   -5.8179   -8.1908 C   0  0  0  0  0  0  0  0  0  0  0  0
   60.5409   -6.2320   -8.5215 C   0  0  0  0  0  0  0  0  0  0  0  0
   60.9280   -6.2078   -9.8468 C   0  0  0  0  0  0  0  0  0  0  0  0
   60.0333   -5.7782  -10.8168 C   0  0  0  0  0  0  0  0  0  0  0  0
   58.7675   -5.3807  -10.4447 C   0  0  0  0  0  0  0  0  0  0  0  0
   62.2097   -6.6005  -10.2526 N   0  0  0  0  0  0  0  0  0  0  0  0
   63.3754   -6.7131   -9.4126 C   0  0  0  0  0  0  0  0  0  0  0  0
   63.7577   -8.1762   -9.3827 C   0  0  0  0  0  0  0  0  0  0  0  0
   63.7781   -8.7613  -10.7077 N   0  0  0  0  0  0  0  0  0  0  0  0
   62.7279   -9.7512  -10.8592 C   0  0  0  0  0  0  0  0  0  0  0  0
   63.7178   -7.7596  -11.7571 C   0  0  0  0  0  0  0  0  0  0  0  0
   62.4374   -6.9490  -11.6687 C   0  0  0  0  0  0  0  0  0  0  0  0
   57.8621   -4.9489  -11.4051 O   0  0  0  0  0  0  0  0  0  0  0  0
   58.1268   -3.8281  -12.1949 C   0  0  0  0  0  0  0  0  0  0  0  0
 18 19  1  0  0  0
 19  1  1  0  0  0
  1  2  1  0  0  0
  2 13  1  0  0  0
 13 14  1  0  0  0
 14 15  1  0  0  0
 15 16  1  0  0  0
 16 17  1  0  0  0
  2  3  1  0  0  0
  3  4  2  0  0  0
  4  5  1  0  0  0
  5 20  1  0  0  0
 20 22  1  0  0  0
 22 23  2  0  0  0
 23 24  1  0  0  0
 24 25  2  0  0  0
 25 26  1  0  0  0
 26 27  2  0  0  0
 27 35  1  0  0  0
 35 36  1  0  0  0
 25 28  1  0  0  0
 28 29  1  0  0  0
 29 30  1  0  0  0
 30 31  1  0  0  0
 31 32  1  0  0  0
 31 33  1  0  0  0
 33 34  1  0  0  0
  5  6  2  0  0  0
  6  7  1  0  0  0
  7  8  2  0  0  0
  8  9  1  0  0  0
  9 10  1  0  0  0
  9 11  1  0  0  0
 11 12  2  0  0  0
 11  1  1  0  0  0
 17 13  1  0  0  0
  8  3  1  0  0  0
 27 22  1  0  0  0
 34 28  1  0  0  0
 20 21  1  0  0  0
M  END
> <minimizedAffinity>
-7.72034

> <CNNscore>
0.2668956816

> <CNNaffinity>
6.7627463341

> <CNN_VS>
1.8049477339

> <CNNaffinity_variance>
0.1319433451

$$$$
[H]c1nc(N([H])c2c([H])c([H])c(N3C([H])([H])C([H])([H])N(C([H])([H])[H])C([H])([H])C3([H])[H])c([H])c2OC([H])([H])[H])nc2c1N(C([H])([H])[H])C(=O)[C@@]([H])(C([H])([H])C([H])([H])[H])N2C1([H])C([H])([H])C([H])([H])C([H])([H])C1([H])[H]


 36 40  0  0  0  0  0  0  0  0999 V2000
   59.5282   -2.4970  -16.1949 C   0  0  0  0  0  0  0  0  0  0  0  0
   58.4078   -3.1804  -15.6006 N   0  0  0  0  0  0  0  0  0  0  0  0
   58.5716   -3.5338  -14.1984 C   0  0  0  0  0  0  0  0  0  0  0  0
   57.4784   -3.5482  -13.4473 N   0  0  0  0  0  0  0  0  0  0  0  0
   57.6203   -3.8802  -12.1097 C   0  0  0  0  0  0  0  0  0  0  0  0
   58.8378   -4.1640  -11.6567 N   0  0  0  0  0  0  0  0  0  0  0  0
   59.9692   -4.1606  -12.3815 C   0  0  0  0  0  0  0  0  0  0  0  0
   59.8316   -3.8308  -13.7115 C   0  0  0  0  0  0  0  0  0  0  0  0
   60.9242   -3.7717  -14.6117 N   0  0  0  0  0  0  0  0  0  0  0  0
   62.2821   -4.0994  -14.1513 C   0  0  0  0  0  0  0  0  0  0  0  0
   60.7072   -3.4064  -15.9804 C   0  0  0  0  0  0  0  0  0  0  0  0
   61.4255   -3.8038  -16.8996 O   0  0  0  0  0  0  0  0  0  0  0  0
   57.2051   -3.5110  -16.3090 C   0  0  0  0  0  0  0  0  0  0  0  0
   56.8517   -2.6730  -17.4711 C   0  0  0  0  0  0  0  0  0  0  0  0
   55.3660   -3.1034  -17.6535 C   0  0  0  0  0  0  0  0  0  0  0  0
   54.9127   -2.6478  -16.2530 C   0  0  0  0  0  0  0  0  0  0  0  0
   55.9665   -3.3971  -15.4223 C   0  0  0  0  0  0  0  0  0  0  0  0
   58.9930   -0.5870  -17.6495 C   0  0  0  0  0  0  0  0  0  0  0  0
   59.3887   -2.0831  -17.6120 C   0  0  0  0  0  0  0  0  0  0  0  0
   56.4127   -3.8638  -11.3830 N   0  0  0  0  0  0  0  0  0  0  0  0
   55.5324   -3.4885  -11.8774 H   0  0  0  0  0  0  0  0  0  0  0  0
   56.2374   -4.2942  -10.0647 C   0  0  0  0  0  0  0  0  0  0  0  0
   57.1798   -4.8802   -9.2651 C   0  0  0  0  0  0  0  0  0  0  0  0
   56.9350   -5.2962   -7.9482 C   0  0  0  0  0  0  0  0  0  0  0  0
   55.6743   -5.1092   -7.4166 C   0  0  0  0  0  0  0  0  0  0  0  0
   54.6832   -4.5190   -8.1881 C   0  0  0  0  0  0  0  0  0  0  0  0
   54.9701   -4.1260   -9.4774 C   0  0  0  0  0  0  0  0  0  0  0  0
   55.3533   -5.5042   -6.1117 N   0  0  0  0  0  0  0  0  0  0  0  0
   54.4851   -6.5916   -5.7368 C   0  0  0  0  0  0  0  0  0  0  0  0
   55.3429   -7.6172   -5.0297 C   0  0  0  0  0  0  0  0  0  0  0  0
   56.1990   -7.0146   -4.0285 N   0  0  0  0  0  0  0  0  0  0  0  0
   57.5970   -7.1198   -4.4030 C   0  0  0  0  0  0  0  0  0  0  0  0
   55.8299   -5.6407   -3.7377 C   0  0  0  0  0  0  0  0  0  0  0  0
   55.9422   -4.7689   -4.9753 C   0  0  0  0  0  0  0  0  0  0  0  0
   53.9878   -3.5339  -10.2603 O   0  0  0  0  0  0  0  0  0  0  0  0
   52.8351   -2.9938   -9.6864 C   0  0  0  0  0  0  0  0  0  0  0  0
 18 19  1  0  0  0
 19  1  1  0  0  0
  1  2  1  0  0  0
  2 13  1  0  0  0
 13 14  1  0  0  0
 14 15  1  0  0  0
 15 16  1  0  0  0
 16 17  1  0  0  0
  2  3  1  0  0  0
  3  4  2  0  0  0
  4  5  1  0  0  0
  5 20  1  0  0  0
 20 22  1  0  0  0
 22 23  2  0  0  0
 23 24  1  0  0  0
 24 25  2  0  0  0
 25 26  1  0  0  0
 26 27  2  0  0  0
 27 35  1  0  0  0
 35 36  1  0  0  0
 25 28  1  0  0  0
 28 29  1  0  0  0
 29 30  1  0  0  0
 30 31  1  0  0  0
 31 32  1  0  0  0
 31 33  1  0  0  0
 33 34  1  0  0  0
  5  6  2  0  0  0
  6  7  1  0  0  0
  7  8  2  0  0  0
  8  9  1  0  0  0
  9 10  1  0  0  0
  9 11  1  0  0  0
 11 12  2  0  0  0
 11  1  1  0  0  0
 17 13  1  0  0  0
  8  3  1  0  0  0
 27 22  1  0  0  0
 34 28  1  0  0  0
 20 21  1  0  0  0
M  END
> <minimizedAffinity>
-6.15495

> <CNNscore>
0.2471863776

> <CNNaffinity>
6.3893365860

> <CNN_VS>
1.5793569088

> <CNNaffinity_variance>
0.1058185324

$$$$
[H]c1nc(N([H])c2c([H])c([H])c(N3C([H])([H])C([H])([H])N(C([H])([H])[H])C([H])([H])C3([H])[H])c([H])c2OC([H])([H])[H])nc2c1N(C([H])([H])[H])C(=O)[C@@]([H])(C([H])([H])C([H])([H])[H])N2C1([H])C([H])([H])C([H])([H])C([H])([H])C1([H])[H]


 36 40  0  0  0  0  0  0  0  0999 V2000
   56.1231   -4.2746   -8.6117 C   0  0  0  0  0  0  0  0  0  0  0  0
   55.1141   -5.1382   -8.0534 N   0  0  0  0  0  0  0  0  0  0  0  0
   55.4739   -5.7782   -6.7969 C   0  0  0  0  0  0  0  0  0  0  0  0
   54.4911   -6.0228   -5.9404 N   0  0  0  0  0  0  0  0  0  0  0  0
   54.8200   -6.6293   -4.7388 C   0  0  0  0  0  0  0  0  0  0  0  0
   56.0954   -6.9303   -4.5133 N   0  0  0  0  0  0  0  0  0  0  0  0
   57.1199   -6.6998   -5.3516 C   0  0  0  0  0  0  0  0  0  0  0  0
   56.7963   -6.0968   -6.5468 C   0  0  0  0  0  0  0  0  0  0  0  0
   57.7572   -5.7762   -7.5374 N   0  0  0  0  0  0  0  0  0  0  0  0
   59.1742   -6.1130   -7.3317 C   0  0  0  0  0  0  0  0  0  0  0  0
   57.3488   -5.1352   -8.7524 C   0  0  0  0  0  0  0  0  0  0  0  0
   57.9513   -5.2779   -9.8180 O   0  0  0  0  0  0  0  0  0  0  0  0
   53.8393   -5.3791   -8.6654 C   0  0  0  0  0  0  0  0  0  0  0  0
   52.9047   -4.2404   -8.7538 C   0  0  0  0  0  0  0  0  0  0  0  0
   51.5917   -5.0129   -9.0781 C   0  0  0  0  0  0  0  0  0  0  0  0
   51.6016   -5.8582   -7.7899 C   0  0  0  0  0  0  0  0  0  0  0  0
   53.0257   -6.4247   -7.9053 C   0  0  0  0  0  0  0  0  0  0  0  0
   56.1577   -4.4873  -11.0621 C   0  0  0  0  0  0  0  0  0  0  0  0
   55.7833   -3.5708   -9.8720 C   0  0  0  0  0  0  0  0  0  0  0  0
   53.7197   -6.8455   -3.8849 N   0  0  0  0  0  0  0  0  0  0  0  0
   53.7919   -7.6406   -3.1618 H   0  0  0  0  0  0  0  0  0  0  0  0
   52.5251   -6.1197   -3.8788 C   0  0  0  0  0  0  0  0  0  0  0  0
   51.9196   -5.5350   -4.9569 C   0  0  0  0  0  0  0  0  0  0  0  0
   50.7200   -4.8122   -4.8801 C   0  0  0  0  0  0  0  0  0  0  0  0
   50.1050   -4.6756   -3.6512 C   0  0  0  0  0  0  0  0  0  0  0  0
   50.6802   -5.2505   -2.5267 C   0  0  0  0  0  0  0  0  0  0  0  0
   51.8598   -5.9519   -2.6506 C   0  0  0  0  0  0  0  0  0  0  0  0
   48.9092   -3.9633   -3.4952 N   0  0  0  0  0  0  0  0  0  0  0  0
   48.3753   -2.9797   -4.4032 C   0  0  0  0  0  0  0  0  0  0  0  0
   47.0864   -3.5447   -4.9575 C   0  0  0  0  0  0  0  0  0  0  0  0
   46.2364   -4.0856   -3.9166 N   0  0  0  0  0  0  0  0  0  0  0  0
   46.1117   -5.5263   -4.0384 C   0  0  0  0  0  0  0  0  0  0  0  0
   46.6757   -3.7020   -2.5869 C   0  0  0  0  0  0  0  0  0  0  0  0
   48.0762   -4.2144   -2.3028 C   0  0  0  0  0  0  0  0  0  0  0  0
   52.4460   -6.5324   -1.5335 O   0  0  0  0  0  0  0  0  0  0  0  0
   51.7376   -7.4276   -0.7293 C   0  0  0  0  0  0  0  0  0  0  0  0
 18 19  1  0  0  0
 19  1  1  0  0  0
  1  2  1  0  0  0
  2 13  1  0  0  0
 13 14  1  0  0  0
 14 15  1  0  0  0
 15 16  1  0  0  0
 16 17  1  0  0  0
  2  3  1  0  0  0
  3  4  2  0  0  0
  4  5  1  0  0  0
  5 20  1  0  0  0
 20 22  1  0  0  0
 22 23  2  0  0  0
 23 24  1  0  0  0
 24 25  2  0  0  0
 25 26  1  0  0  0
 26 27  2  0  0  0
 27 35  1  0  0  0
 35 36  1  0  0  0
 25 28  1  0  0  0
 28 29  1  0  0  0
 29 30  1  0  0  0
 30 31  1  0  0  0
 31 32  1  0  0  0
 31 33  1  0  0  0
 33 34  1  0  0  0
  5  6  2  0  0  0
  6  7  1  0  0  0
  7  8  2  0  0  0
  8  9  1  0  0  0
  9 10  1  0  0  0
  9 11  1  0  0  0
 11 12  2  0  0  0
 11  1  1  0  0  0
 17 13  1  0  0  0
  8  3  1  0  0  0
 27 22  1  0  0  0
 34 28  1  0  0  0
 20 21  1  0  0  0
M  END
> <minimizedAffinity>
6.33637

> <CNNscore>
0.2246379554

> <CNNaffinity>
6.8746666908

> <CNN_VS>
1.5443110466

> <CNNaffinity_variance>
0.2953033447

$$$$
[H]c1nc2c(nc1N([H])C1=C(c3c([H])c([H])c([H])c([H])c3[H])C(=O)N([H])C1=O)c(-c1c([H])c([H])c(C([H])([H])N3C([H])([H])C([H])([H])C([H])([H])C([H])([H])C3([H])[H])c([H])c1[H])c([H])n2[H]


 39 44  0  0  0  0  0  0  0  0999 V2000
   54.3170   -3.2738   -8.8295 C   0  0  0  0  0  0  0  0  0  0  0  0
   53.2277   -2.6292   -9.3788 C   0  0  0  0  0  0  0  0  0  0  0  0
   51.9827   -2.8132   -8.8756 N   0  0  0  0  0  0  0  0  0  0  0  0
   51.8437   -3.6453   -7.8227 C   0  0  0  0  0  0  0  0  0  0  0  0
   50.7744   -4.0335   -7.1076 N   0  0  0  0  0  0  0  0  0  0  0  0
   51.1224   -4.8849   -6.1383 C   0  0  0  0  0  0  0  0  0  0  0  0
   52.5042   -5.0829   -6.2025 C   0  0  0  0  0  0  0  0  0  0  0  0
   52.9313   -4.3030   -7.2565 C   0  0  0  0  0  0  0  0  0  0  0  0
   54.1437   -4.0959   -7.7810 N   0  0  0  0  0  0  0  0  0  0  0  0
   49.7967   -3.7006   -7.2993 H   0  0  0  0  0  0  0  0  0  0  0  0
   53.2858   -5.9377   -5.3175 C   0  0  0  0  0  0  0  0  0  0  0  0
   53.0650   -5.9762   -3.9436 C   0  0  0  0  0  0  0  0  0  0  0  0
   53.8134   -6.7844   -3.1278 C   0  0  0  0  0  0  0  0  0  0  0  0
   54.8061   -7.5803   -3.6550 C   0  0  0  0  0  0  0  0  0  0  0  0
   55.0298   -7.5440   -5.0320 C   0  0  0  0  0  0  0  0  0  0  0  0
   54.2799   -6.7380   -5.8268 C   0  0  0  0  0  0  0  0  0  0  0  0
   55.5980   -8.4347   -2.7646 C   0  0  0  0  0  0  0  0  0  0  0  0
   56.2088   -7.7044   -1.7055 N   0  0  0  0  0  0  0  0  0  0  0  0
   57.4471   -7.1357   -2.2228 C   0  0  0  0  0  0  0  0  0  0  0  0
   58.3102   -6.6478   -1.0795 C   0  0  0  0  0  0  0  0  0  0  0  0
   58.7269   -7.8139   -0.2268 C   0  0  0  0  0  0  0  0  0  0  0  0
   57.8265   -9.0193   -0.4159 C   0  0  0  0  0  0  0  0  0  0  0  0
   56.4037   -8.4546   -0.5115 C   0  0  0  0  0  0  0  0  0  0  0  0
   55.6139   -3.0543   -9.3877 N   0  0  0  0  0  0  0  0  0  0  0  0
   55.7806   -2.1641   -9.9002 H   0  0  0  0  0  0  0  0  0  0  0  0
   59.0617   -6.2853  -10.2274 O   0  0  0  0  0  0  0  0  0  0  0  0
   58.2420   -5.5604   -9.5978 C   0  0  0  0  0  0  0  0  0  0  0  0
   58.0581   -5.5299   -8.1999 N   0  0  0  0  0  0  0  0  0  0  0  0
   57.0533   -4.5881   -7.9285 C   0  0  0  0  0  0  0  0  0  0  0  0
   56.5918   -4.2622   -6.7861 O   0  0  0  0  0  0  0  0  0  0  0  0
   56.6403   -4.0535   -9.2221 C   0  0  0  0  0  0  0  0  0  0  0  0
   57.3121   -4.5969  -10.2214 C   0  0  0  0  0  0  0  0  0  0  0  0
   58.5680   -6.0985   -7.4730 H   0  0  0  0  0  0  0  0  0  0  0  0
   57.1952   -4.3258  -11.6525 C   0  0  0  0  0  0  0  0  0  0  0  0
   56.0499   -4.5471  -12.3785 C   0  0  0  0  0  0  0  0  0  0  0  0
   55.9759   -4.2846  -13.7333 C   0  0  0  0  0  0  0  0  0  0  0  0
   57.0614   -3.7878  -14.4003 C   0  0  0  0  0  0  0  0  0  0  0  0
   58.2391   -3.5550  -13.6771 C   0  0  0  0  0  0  0  0  0  0  0  0
   58.2870   -3.8258  -12.3241 C   0  0  0  0  0  0  0  0  0  0  0  0
 26 27  2  0  0  0
 27 28  1  0  0  0
 28 29  1  0  0  0
 29 30  2  0  0  0
 29 31  1  0  0  0
 31 24  1  0  0  0
 24  1  1  0  0  0
  1  2  2  0  0  0
  2  3  1  0  0  0
  3  4  2  0  0  0
  4  5  1  0  0  0
  5  6  1  0  0  0
  6  7  2  0  0  0
  7 11  1  0  0  0
 11 12  2  0  0  0
 12 13  1  0  0  0
 13 14  2  0  0  0
 14 17  1  0  0  0
 17 18  1  0  0  0
 18 19  1  0  0  0
 19 20  1  0  0  0
 20 21  1  0  0  0
 21 22  1  0  0  0
 22 23  1  0  0  0
 14 15  1  0  0  0
 15 16  2  0  0  0
  7  8  1  0  0  0
  8  9  2  0  0  0
 31 32  2  0  0  0
 32 34  1  0  0  0
 34 35  2  0  0  0
 35 36  1  0  0  0
 36 37  2  0  0  0
 37 38  1  0  0  0
 38 39  2  0  0  0
 32 27  1  0  0  0
 39 34  1  0  0  0
  9  1  1  0  0  0
  8  4  1  0  0  0
 16 11  1  0  0  0
 23 18  1  0  0  0
 28 33  1  0  0  0
 24 25  1  0  0  0
  5 10  1  0  0  0
M  END
> <minimizedAffinity>
-9.86650

> <CNNscore>
0.8777938485

> <CNNaffinity>
7.8441939354

> <CNN_VS>
6.8855853081

> <CNNaffinity_variance>
0.0279817097

$$$$
[H]c1nc2c(nc1N([H])C1=C(c3c([H])c([H])c([H])c([H])c3[H])C(=O)N([H])C1=O)c(-c1c([H])c([H])c(C([H])([H])N3C([H])([H])C([H])([H])C([H])([H])C([H])([H])C3([H])[H])c([H])c1[H])c([H])n2[H]


 39 44  0  0  0  0  0  0  0  0999 V2000
   54.1801   -3.2358   -8.7808 C   0  0  0  0  0  0  0  0  0  0  0  0
   53.1805   -2.7005   -9.5669 C   0  0  0  0  0  0  0  0  0  0  0  0
   51.8745   -2.8880   -9.2566 N   0  0  0  0  0  0  0  0  0  0  0  0
   51.5846   -3.6134   -8.1566 C   0  0  0  0  0  0  0  0  0  0  0  0
   50.4220   -3.9741   -7.5877 N   0  0  0  0  0  0  0  0  0  0  0  0
   50.6266   -4.7053   -6.4882 C   0  0  0  0  0  0  0  0  0  0  0  0
   52.0046   -4.8464   -6.3043 C   0  0  0  0  0  0  0  0  0  0  0  0
   52.5800   -4.1600   -7.3528 C   0  0  0  0  0  0  0  0  0  0  0  0
   53.8569   -3.9533   -7.6918 N   0  0  0  0  0  0  0  0  0  0  0  0
   49.4812   -3.7069   -7.9712 H   0  0  0  0  0  0  0  0  0  0  0  0
   52.6506   -5.5702   -5.2163 C   0  0  0  0  0  0  0  0  0  0  0  0
   53.7430   -6.4058   -5.4317 C   0  0  0  0  0  0  0  0  0  0  0  0
   54.3344   -7.0805   -4.3954 C   0  0  0  0  0  0  0  0  0  0  0  0
   53.8561   -6.9443   -3.1112 C   0  0  0  0  0  0  0  0  0  0  0  0
   52.7612   -6.1073   -2.8920 C   0  0  0  0  0  0  0  0  0  0  0  0
   52.1862   -5.4457   -3.9291 C   0  0  0  0  0  0  0  0  0  0  0  0
   54.5005   -7.6780   -2.0173 C   0  0  0  0  0  0  0  0  0  0  0  0
   53.6195   -8.5993   -1.3824 N   0  0  0  0  0  0  0  0  0  0  0  0
   52.4744   -8.7890   -2.2641 C   0  0  0  0  0  0  0  0  0  0  0  0
   51.3508   -9.4708   -1.5141 C   0  0  0  0  0  0  0  0  0  0  0  0
   50.8646   -8.5759   -0.4080 C   0  0  0  0  0  0  0  0  0  0  0  0
   51.8844   -7.5199   -0.0285 C   0  0  0  0  0  0  0  0  0  0  0  0
   53.2417   -8.2336   -0.0595 C   0  0  0  0  0  0  0  0  0  0  0  0
   55.5454   -3.0164   -9.1405 N   0  0  0  0  0  0  0  0  0  0  0  0
   55.8038   -2.0879   -9.5329 H   0  0  0  0  0  0  0  0  0  0  0  0
   58.8641   -6.4032   -9.8808 O   0  0  0  0  0  0  0  0  0  0  0  0
   58.0530   -5.6480   -9.2761 C   0  0  0  0  0  0  0  0  0  0  0  0
   57.8061   -5.6305   -7.8877 N   0  0  0  0  0  0  0  0  0  0  0  0
   56.8377   -4.6438   -7.6453 C   0  0  0  0  0  0  0  0  0  0  0  0
   56.3403   -4.3133   -6.5195 O   0  0  0  0  0  0  0  0  0  0  0  0
   56.5122   -4.0685   -8.9464 C   0  0  0  0  0  0  0  0  0  0  0  0
   57.2020   -4.6291   -9.9238 C   0  0  0  0  0  0  0  0  0  0  0  0
   58.2528   -6.2356   -7.1488 H   0  0  0  0  0  0  0  0  0  0  0  0
   57.1653   -4.3298  -11.3535 C   0  0  0  0  0  0  0  0  0  0  0  0
   56.0347   -4.4411  -12.1262 C   0  0  0  0  0  0  0  0  0  0  0  0
   56.0369   -4.1550  -13.4783 C   0  0  0  0  0  0  0  0  0  0  0  0
   57.1867   -3.7453  -14.0951 C   0  0  0  0  0  0  0  0  0  0  0  0
   58.3506   -3.6253  -13.3238 C   0  0  0  0  0  0  0  0  0  0  0  0
   58.3217   -3.9173  -11.9747 C   0  0  0  0  0  0  0  0  0  0  0  0
 26 27  2  0  0  0
 27 28  1  0  0  0
 28 29  1  0  0  0
 29 30  2  0  0  0
 29 31  1  0  0  0
 31 24  1  0  0  0
 24  1  1  0  0  0
  1  2  2  0  0  0
  2  3  1  0  0  0
  3  4  2  0  0  0
  4  5  1  0  0  0
  5  6  1  0  0  0
  6  7  2  0  0  0
  7 11  1  0  0  0
 11 12  2  0  0  0
 12 13  1  0  0  0
 13 14  2  0  0  0
 14 17  1  0  0  0
 17 18  1  0  0  0
 18 19  1  0  0  0
 19 20  1  0  0  0
 20 21  1  0  0  0
 21 22  1  0  0  0
 22 23  1  0  0  0
 14 15  1  0  0  0
 15 16  2  0  0  0
  7  8  1  0  0  0
  8  9  2  0  0  0
 31 32  2  0  0  0
 32 34  1  0  0  0
 34 35  2  0  0  0
 35 36  1  0  0  0
 36 37  2  0  0  0
 37 38  1  0  0  0
 38 39  2  0  0  0
 32 27  1  0  0  0
 39 34  1  0  0  0
  9  1  1  0  0  0
  8  4  1  0  0  0
 16 11  1  0  0  0
 23 18  1  0  0  0
 28 33  1  0  0  0
 24 25  1  0  0  0
  5 10  1  0  0  0
M  END
> <minimizedAffinity>
-9.45383

> <CNNscore>
0.8633669019

> <CNNaffinity>
8.0070934296

> <CNN_VS>
6.9130592346

> <CNNaffinity_variance>
0.0505889468

$$$$
[H]c1nc2c(nc1N([H])C1=C(c3c([H])c([H])c([H])c([H])c3[H])C(=O)N([H])C1=O)c(-c1c([H])c([H])c(C([H])([H])N3C([H])([H])C([H])([H])C([H])([H])C([H])([H])C3([H])[H])c([H])c1[H])c([H])n2[H]


 39 44  0  0  0  0  0  0  0  0999 V2000
   52.7293   -5.2568   -6.5929 C   0  0  0  0  0  0  0  0  0  0  0  0
   51.7435   -4.3139   -6.8002 C   0  0  0  0  0  0  0  0  0  0  0  0
   51.9348   -3.2835   -7.6597 N   0  0  0  0  0  0  0  0  0  0  0  0
   53.1178   -3.2101   -8.3043 C   0  0  0  0  0  0  0  0  0  0  0  0
   53.6116   -2.3370   -9.1982 N   0  0  0  0  0  0  0  0  0  0  0  0
   54.8509   -2.6716   -9.5692 C   0  0  0  0  0  0  0  0  0  0  0  0
   55.2145   -3.8359   -8.8874 C   0  0  0  0  0  0  0  0  0  0  0  0
   54.1224   -4.1523   -8.1071 C   0  0  0  0  0  0  0  0  0  0  0  0
   53.8961   -5.1543   -7.2511 N   0  0  0  0  0  0  0  0  0  0  0  0
   53.0783   -1.5032   -9.5501 H   0  0  0  0  0  0  0  0  0  0  0  0
   56.4874   -4.5352   -9.0115 C   0  0  0  0  0  0  0  0  0  0  0  0
   57.1872   -4.9974   -7.9004 C   0  0  0  0  0  0  0  0  0  0  0  0
   58.3848   -5.6499   -8.0381 C   0  0  0  0  0  0  0  0  0  0  0  0
   58.9236   -5.8625   -9.2875 C   0  0  0  0  0  0  0  0  0  0  0  0
   58.2245   -5.4004  -10.4033 C   0  0  0  0  0  0  0  0  0  0  0  0
   57.0393   -4.7557  -10.2504 C   0  0  0  0  0  0  0  0  0  0  0  0
   60.2079   -6.5591   -9.4128 C   0  0  0  0  0  0  0  0  0  0  0  0
   61.0463   -6.3700   -8.2774 N   0  0  0  0  0  0  0  0  0  0  0  0
   62.3673   -5.9945   -8.7659 C   0  0  0  0  0  0  0  0  0  0  0  0
   63.3851   -6.1166   -7.6527 C   0  0  0  0  0  0  0  0  0  0  0  0
   63.5043   -7.5551   -7.2317 C   0  0  0  0  0  0  0  0  0  0  0  0
   62.2984   -8.3787   -7.6400 C   0  0  0  0  0  0  0  0  0  0  0  0
   61.0836   -7.4780   -7.3843 C   0  0  0  0  0  0  0  0  0  0  0  0
   52.4903   -6.3287   -5.6789 N   0  0  0  0  0  0  0  0  0  0  0  0
   52.5146   -7.3009   -6.0494 H   0  0  0  0  0  0  0  0  0  0  0  0
   52.9772   -5.7192   -0.9435 O   0  0  0  0  0  0  0  0  0  0  0  0
   52.4440   -5.7538   -2.0873 C   0  0  0  0  0  0  0  0  0  0  0  0
   51.1027   -5.4426   -2.3921 N   0  0  0  0  0  0  0  0  0  0  0  0
   50.9357   -5.6118   -3.7755 C   0  0  0  0  0  0  0  0  0  0  0  0
   49.8697   -5.4311   -4.4501 O   0  0  0  0  0  0  0  0  0  0  0  0
   52.2330   -6.0382   -4.2901 C   0  0  0  0  0  0  0  0  0  0  0  0
   53.1399   -6.1325   -3.3341 C   0  0  0  0  0  0  0  0  0  0  0  0
   50.3469   -5.1371   -1.7234 H   0  0  0  0  0  0  0  0  0  0  0  0
   54.5446   -6.5193   -3.4450 C   0  0  0  0  0  0  0  0  0  0  0  0
   55.0370   -7.7299   -3.0213 C   0  0  0  0  0  0  0  0  0  0  0  0
   56.3738   -8.0611   -3.1365 C   0  0  0  0  0  0  0  0  0  0  0  0
   57.2593   -7.1755   -3.6859 C   0  0  0  0  0  0  0  0  0  0  0  0
   56.7763   -5.9351   -4.1244 C   0  0  0  0  0  0  0  0  0  0  0  0
   55.4360   -5.6288   -3.9979 C   0  0  0  0  0  0  0  0  0  0  0  0
 26 27  2  0  0  0
 27 28  1  0  0  0
 28 29  1  0  0  0
 29 30  2  0  0  0
 29 31  1  0  0  0
 31 24  1  0  0  0
 24  1  1  0  0  0
  1  2  2  0  0  0
  2  3  1  0  0  0
  3  4  2  0  0  0
  4  5  1  0  0  0
  5  6  1  0  0  0
  6  7  2  0  0  0
  7 11  1  0  0  0
 11 12  2  0  0  0
 12 13  1  0  0  0
 13 14  2  0  0  0
 14 17  1  0  0  0
 17 18  1  0  0  0
 18 19  1  0  0  0
 19 20  1  0  0  0
 20 21  1  0  0  0
 21 22  1  0  0  0
 22 23  1  0  0  0
 14 15  1  0  0  0
 15 16  2  0  0  0
  7  8  1  0  0  0
  8  9  2  0  0  0
 31 32  2  0  0  0
 32 34  1  0  0  0
 34 35  2  0  0  0
 35 36  1  0  0  0
 36 37  2  0  0  0
 37 38  1  0  0  0
 38 39  2  0  0  0
 32 27  1  0  0  0
 39 34  1  0  0  0
  9  1  1  0  0  0
  8  4  1  0  0  0
 16 11  1  0  0  0
 23 18  1  0  0  0
 28 33  1  0  0  0
 24 25  1  0  0  0
  5 10  1  0  0  0
M  END
> <minimizedAffinity>
-9.04685

> <CNNscore>
0.3786258101

> <CNNaffinity>
7.3549828529

> <CNN_VS>
2.7847862244

> <CNNaffinity_variance>
0.0819120184

$$$$
[H]c1nc2c(nc1N([H])C1=C(c3c([H])c([H])c([H])c([H])c3[H])C(=O)N([H])C1=O)c(-c1c([H])c([H])c(C([H])([H])N3C([H])([H])C([H])([H])C([H])([H])C([H])([H])C3([H])[H])c([H])c1[H])c([H])n2[H]


 39 44  0  0  0  0  0  0  0  0999 V2000
   52.6896   -5.5133   -5.7136 C   0  0  0  0  0  0  0  0  0  0  0  0
   51.4881   -4.8552   -5.8776 C   0  0  0  0  0  0  0  0  0  0  0  0
   51.2999   -3.9953   -6.9082 N   0  0  0  0  0  0  0  0  0  0  0  0
   52.3233   -3.8043   -7.7663 C   0  0  0  0  0  0  0  0  0  0  0  0
   52.4579   -3.0388   -8.8624 N   0  0  0  0  0  0  0  0  0  0  0  0
   53.6729   -3.1739   -9.4018 C   0  0  0  0  0  0  0  0  0  0  0  0
   54.3997   -4.0812   -8.6265 C   0  0  0  0  0  0  0  0  0  0  0  0
   53.5413   -4.4598   -7.6158 C   0  0  0  0  0  0  0  0  0  0  0  0
   53.6887   -5.3004   -6.5865 N   0  0  0  0  0  0  0  0  0  0  0  0
   51.6954   -2.4193   -9.2343 H   0  0  0  0  0  0  0  0  0  0  0  0
   55.7701   -4.5107   -8.8757 C   0  0  0  0  0  0  0  0  0  0  0  0
   56.6092   -4.9346   -7.8490 C   0  0  0  0  0  0  0  0  0  0  0  0
   57.8964   -5.3313   -8.1037 C   0  0  0  0  0  0  0  0  0  0  0  0
   58.3887   -5.3181   -9.3899 C   0  0  0  0  0  0  0  0  0  0  0  0
   57.5500   -4.8937  -10.4212 C   0  0  0  0  0  0  0  0  0  0  0  0
   56.2774   -4.5037  -10.1528 C   0  0  0  0  0  0  0  0  0  0  0  0
   59.7698   -5.7425   -9.6405 C   0  0  0  0  0  0  0  0  0  0  0  0
   60.1000   -6.9549   -8.9705 N   0  0  0  0  0  0  0  0  0  0  0  0
   61.2371   -6.6793   -8.1012 C   0  0  0  0  0  0  0  0  0  0  0  0
   61.8550   -7.9776   -7.6295 C   0  0  0  0  0  0  0  0  0  0  0  0
   62.4182   -8.7265   -8.8054 C   0  0  0  0  0  0  0  0  0  0  0  0
   61.8168   -8.2727  -10.1214 C   0  0  0  0  0  0  0  0  0  0  0  0
   60.3245   -8.0619   -9.8369 C   0  0  0  0  0  0  0  0  0  0  0  0
   52.8501   -6.4123   -4.6146 N   0  0  0  0  0  0  0  0  0  0  0  0
   52.8351   -7.4338   -4.8133 H   0  0  0  0  0  0  0  0  0  0  0  0
   54.7493   -5.1404   -0.3948 O   0  0  0  0  0  0  0  0  0  0  0  0
   53.9006   -5.2931   -1.3168 C   0  0  0  0  0  0  0  0  0  0  0  0
   52.5488   -4.8926   -1.2810 N   0  0  0  0  0  0  0  0  0  0  0  0
   51.9709   -5.2529   -2.5083 C   0  0  0  0  0  0  0  0  0  0  0  0
   50.7650   -5.0661   -2.8758 O   0  0  0  0  0  0  0  0  0  0  0  0
   53.0318   -5.8873   -3.2840 C   0  0  0  0  0  0  0  0  0  0  0  0
   54.1741   -5.9293   -2.6216 C   0  0  0  0  0  0  0  0  0  0  0  0
   52.0431   -4.4105   -0.4913 H   0  0  0  0  0  0  0  0  0  0  0  0
   55.4591   -6.4744   -3.0539 C   0  0  0  0  0  0  0  0  0  0  0  0
   56.1723   -5.9873   -4.1225 C   0  0  0  0  0  0  0  0  0  0  0  0
   57.3831   -6.5309   -4.5076 C   0  0  0  0  0  0  0  0  0  0  0  0
   57.9140   -7.5885   -3.8222 C   0  0  0  0  0  0  0  0  0  0  0  0
   57.2016   -8.0995   -2.7288 C   0  0  0  0  0  0  0  0  0  0  0  0
   55.9939   -7.5383   -2.3645 C   0  0  0  0  0  0  0  0  0  0  0  0
 26 27  2  0  0  0
 27 28  1  0  0  0
 28 29  1  0  0  0
 29 30  2  0  0  0
 29 31  1  0  0  0
 31 24  1  0  0  0
 24  1  1  0  0  0
  1  2  2  0  0  0
  2  3  1  0  0  0
  3  4  2  0  0  0
  4  5  1  0  0  0
  5  6  1  0  0  0
  6  7  2  0  0  0
  7 11  1  0  0  0
 11 12  2  0  0  0
 12 13  1  0  0  0
 13 14  2  0  0  0
 14 17  1  0  0  0
 17 18  1  0  0  0
 18 19  1  0  0  0
 19 20  1  0  0  0
 20 21  1  0  0  0
 21 22  1  0  0  0
 22 23  1  0  0  0
 14 15  1  0  0  0
 15 16  2  0  0  0
  7  8  1  0  0  0
  8  9  2  0  0  0
 31 32  2  0  0  0
 32 34  1  0  0  0
 34 35  2  0  0  0
 35 36  1  0  0  0
 36 37  2  0  0  0
 37 38  1  0  0  0
 38 39  2  0  0  0
 32 27  1  0  0  0
 39 34  1  0  0  0
  9  1  1  0  0  0
  8  4  1  0  0  0
 16 11  1  0  0  0
 23 18  1  0  0  0
 28 33  1  0  0  0
 24 25  1  0  0  0
  5 10  1  0  0  0
M  END
> <minimizedAffinity>
-9.49277

> <CNNscore>
0.3515908122

> <CNNaffinity>
7.3423280716

> <CNN_VS>
2.5814950466

> <CNNaffinity_variance>
0.0320616364

$$$$
[H]c1nc2c(nc1N([H])C1=C(c3c([H])c([H])c([H])c([H])c3[H])C(=O)N([H])C1=O)c(-c1c([H])c([H])c(C([H])([H])N3C([H])([H])C([H])([H])C([H])([H])C([H])([H])C3([H])[H])c([H])c1[H])c([H])n2[H]


 39 44  0  0  0  0  0  0  0  0999 V2000
   52.6148   -5.9755   -5.2733 C   0  0  0  0  0  0  0  0  0  0  0  0
   51.5388   -5.5987   -4.4962 C   0  0  0  0  0  0  0  0  0  0  0  0
   51.6028   -5.6549   -3.1435 N   0  0  0  0  0  0  0  0  0  0  0  0
   52.7503   -6.0903   -2.5831 C   0  0  0  0  0  0  0  0  0  0  0  0
   53.1289   -6.2602   -1.3052 N   0  0  0  0  0  0  0  0  0  0  0  0
   54.3806   -6.7215   -1.2275 C   0  0  0  0  0  0  0  0  0  0  0  0
   54.8749   -6.8719   -2.5259 C   0  0  0  0  0  0  0  0  0  0  0  0
   53.8448   -6.4739   -3.3518 C   0  0  0  0  0  0  0  0  0  0  0  0
   53.7431   -6.4045   -4.6833 N   0  0  0  0  0  0  0  0  0  0  0  0
   52.5080   -6.0520   -0.4838 H   0  0  0  0  0  0  0  0  0  0  0  0
   56.2061   -7.3467   -2.8825 C   0  0  0  0  0  0  0  0  0  0  0  0
   56.8919   -6.8580   -3.9910 C   0  0  0  0  0  0  0  0  0  0  0  0
   58.1419   -7.3202   -4.3116 C   0  0  0  0  0  0  0  0  0  0  0  0
   58.7486   -8.2845   -3.5378 C   0  0  0  0  0  0  0  0  0  0  0  0
   58.0637   -8.7763   -2.4259 C   0  0  0  0  0  0  0  0  0  0  0  0
   56.8260   -8.3084   -2.1215 C   0  0  0  0  0  0  0  0  0  0  0  0
   60.0845   -8.7684   -3.9003 C   0  0  0  0  0  0  0  0  0  0  0  0
   60.9163   -7.7382   -4.4246 N   0  0  0  0  0  0  0  0  0  0  0  0
   61.3806   -8.1748   -5.7354 C   0  0  0  0  0  0  0  0  0  0  0  0
   62.5290   -7.3029   -6.1948 C   0  0  0  0  0  0  0  0  0  0  0  0
   63.7016   -7.4824   -5.2709 C   0  0  0  0  0  0  0  0  0  0  0  0
   63.2956   -8.0528   -3.9258 C   0  0  0  0  0  0  0  0  0  0  0  0
   61.9816   -7.3492   -3.5642 C   0  0  0  0  0  0  0  0  0  0  0  0
   52.5091   -5.9023   -6.6964 N   0  0  0  0  0  0  0  0  0  0  0  0
   52.6327   -6.7805   -7.2410 H   0  0  0  0  0  0  0  0  0  0  0  0
   52.9446   -1.7721   -9.1013 O   0  0  0  0  0  0  0  0  0  0  0  0
   52.4205   -2.7111   -8.4399 C   0  0  0  0  0  0  0  0  0  0  0  0
   51.0741   -2.7908   -8.0279 N   0  0  0  0  0  0  0  0  0  0  0  0
   50.9209   -3.9945   -7.3223 C   0  0  0  0  0  0  0  0  0  0  0  0
   49.8554   -4.4416   -6.7848 O   0  0  0  0  0  0  0  0  0  0  0  0
   52.2320   -4.6355   -7.3271 C   0  0  0  0  0  0  0  0  0  0  0  0
   53.1341   -3.9163   -7.9705 C   0  0  0  0  0  0  0  0  0  0  0  0
   50.3064   -2.0900   -8.2046 H   0  0  0  0  0  0  0  0  0  0  0  0
   54.5461   -4.2161   -8.1976 C   0  0  0  0  0  0  0  0  0  0  0  0
   55.0998   -4.3751   -9.4449 C   0  0  0  0  0  0  0  0  0  0  0  0
   56.4395   -4.6640   -9.6233 C   0  0  0  0  0  0  0  0  0  0  0  0
   57.2657   -4.8018   -8.5423 C   0  0  0  0  0  0  0  0  0  0  0  0
   56.7196   -4.6429   -7.2614 C   0  0  0  0  0  0  0  0  0  0  0  0
   55.3779   -4.3546   -7.1104 C   0  0  0  0  0  0  0  0  0  0  0  0
 26 27  2  0  0  0
 27 28  1  0  0  0
 28 29  1  0  0  0
 29 30  2  0  0  0
 29 31  1  0  0  0
 31 24  1  0  0  0
 24  1  1  0  0  0
  1  2  2  0  0  0
  2  3  1  0  0  0
  3  4  2  0  0  0
  4  5  1  0  0  0
  5  6  1  0  0  0
  6  7  2  0  0  0
  7 11  1  0  0  0
 11 12  2  0  0  0
 12 13  1  0  0  0
 13 14  2  0  0  0
 14 17  1  0  0  0
 17 18  1  0  0  0
 18 19  1  0  0  0
 19 20  1  0  0  0
 20 21  1  0  0  0
 21 22  1  0  0  0
 22 23  1  0  0  0
 14 15  1  0  0  0
 15 16  2  0  0  0
  7  8  1  0  0  0
  8  9  2  0  0  0
 31 32  2  0  0  0
 32 34  1  0  0  0
 34 35  2  0  0  0
 35 36  1  0  0  0
 36 37  2  0  0  0
 37 38  1  0  0  0
 38 39  2  0  0  0
 32 27  1  0  0  0
 39 34  1  0  0  0
  9  1  1  0  0  0
  8  4  1  0  0  0
 16 11  1  0  0  0
 23 18  1  0  0  0
 28 33  1  0  0  0
 24 25  1  0  0  0
  5 10  1  0  0  0
M  END
> <minimizedAffinity>
-9.21612

> <CNNscore>
0.3254823685

> <CNNaffinity>
7.1688399315

> <CNN_VS>
2.3333311081

> <CNNaffinity_variance>
0.0651132613

$$$$
[H]c1nc2c(nc1N([H])C1=C(c3c([H])c([H])c([H])c([H])c3[H])C(=O)N([H])C1=O)c(-c1c([H])c([H])c(C([H])([H])N3C([H])([H])C([H])([H])C([H])([H])C([H])([H])C3([H])[H])c([H])c1[H])c([H])n2[H]


 39 44  0  0  0  0  0  0  0  0999 V2000
   50.9632   -5.8923   -4.3818 C   0  0  0  0  0  0  0  0  0  0  0  0
   49.7991   -5.2868   -3.9553 C   0  0  0  0  0  0  0  0  0  0  0  0
   49.3180   -4.1844   -4.5800 N   0  0  0  0  0  0  0  0  0  0  0  0
   50.0130   -3.6997   -5.6300 C   0  0  0  0  0  0  0  0  0  0  0  0
   49.8120   -2.6503   -6.4447 N   0  0  0  0  0  0  0  0  0  0  0  0
   50.7795   -2.5561   -7.3616 C   0  0  0  0  0  0  0  0  0  0  0  0
   51.6846   -3.6004   -7.1544 C   0  0  0  0  0  0  0  0  0  0  0  0
   51.1883   -4.2979   -6.0732 C   0  0  0  0  0  0  0  0  0  0  0  0
   51.6311   -5.3839   -5.4310 N   0  0  0  0  0  0  0  0  0  0  0  0
   48.9937   -1.9973   -6.3583 H   0  0  0  0  0  0  0  0  0  0  0  0
   52.8824   -3.8607   -7.9432 C   0  0  0  0  0  0  0  0  0  0  0  0
   53.8871   -4.7160   -7.4995 C   0  0  0  0  0  0  0  0  0  0  0  0
   55.0078   -4.9449   -8.2549 C   0  0  0  0  0  0  0  0  0  0  0  0
   55.1633   -4.3286   -9.4767 C   0  0  0  0  0  0  0  0  0  0  0  0
   54.1579   -3.4707   -9.9241 C   0  0  0  0  0  0  0  0  0  0  0  0
   53.0536   -3.2541   -9.1642 C   0  0  0  0  0  0  0  0  0  0  0  0
   56.3715   -4.5839  -10.2674 C   0  0  0  0  0  0  0  0  0  0  0  0
   56.4106   -3.8209  -11.4692 N   0  0  0  0  0  0  0  0  0  0  0  0
   56.1104   -4.7253  -12.5722 C   0  0  0  0  0  0  0  0  0  0  0  0
   56.4717   -4.0735  -13.8892 C   0  0  0  0  0  0  0  0  0  0  0  0
   57.9562   -3.8428  -13.9491 C   0  0  0  0  0  0  0  0  0  0  0  0
   58.5980   -3.8486  -12.5753 C   0  0  0  0  0  0  0  0  0  0  0  0
   57.6199   -3.0957  -11.6649 C   0  0  0  0  0  0  0  0  0  0  0  0
   51.4388   -7.0530   -3.6976 N   0  0  0  0  0  0  0  0  0  0  0  0
   51.3386   -7.9743   -4.1711 H   0  0  0  0  0  0  0  0  0  0  0  0
   54.5814   -6.3824   -0.1329 O   0  0  0  0  0  0  0  0  0  0  0  0
   53.4909   -6.6101   -0.7270 C   0  0  0  0  0  0  0  0  0  0  0  0
   52.2455   -6.8643   -0.1161 N   0  0  0  0  0  0  0  0  0  0  0  0
   51.3071   -7.0621   -1.1409 C   0  0  0  0  0  0  0  0  0  0  0  0
   50.0654   -7.3173   -1.0092 O   0  0  0  0  0  0  0  0  0  0  0  0
   52.0405   -6.9165   -2.3942 C   0  0  0  0  0  0  0  0  0  0  0  0
   53.3191   -6.6518   -2.1935 C   0  0  0  0  0  0  0  0  0  0  0  0
   52.0331   -6.9035    0.9160 H   0  0  0  0  0  0  0  0  0  0  0  0
   54.3712   -6.4336   -3.1837 C   0  0  0  0  0  0  0  0  0  0  0  0
   54.9246   -5.2042   -3.4487 C   0  0  0  0  0  0  0  0  0  0  0  0
   55.9152   -5.0327   -4.3969 C   0  0  0  0  0  0  0  0  0  0  0  0
   56.3803   -6.1026   -5.1105 C   0  0  0  0  0  0  0  0  0  0  0  0
   55.8286   -7.3652   -4.8545 C   0  0  0  0  0  0  0  0  0  0  0  0
   54.8397   -7.5097   -3.9018 C   0  0  0  0  0  0  0  0  0  0  0  0
 26 27  2  0  0  0
 27 28  1  0  0  0
 28 29  1  0  0  0
 29 30  2  0  0  0
 29 31  1  0  0  0
 31 24  1  0  0  0
 24  1  1  0  0  0
  1  2  2  0  0  0
  2  3  1  0  0  0
  3  4  2  0  0  0
  4  5  1  0  0  0
  5  6  1  0  0  0
  6  7  2  0  0  0
  7 11  1  0  0  0
 11 12  2  0  0  0
 12 13  1  0  0  0
 13 14  2  0  0  0
 14 17  1  0  0  0
 17 18  1  0  0  0
 18 19  1  0  0  0
 19 20  1  0  0  0
 20 21  1  0  0  0
 21 22  1  0  0  0
 22 23  1  0  0  0
 14 15  1  0  0  0
 15 16  2  0  0  0
  7  8  1  0  0  0
  8  9  2  0  0  0
 31 32  2  0  0  0
 32 34  1  0  0  0
 34 35  2  0  0  0
 35 36  1  0  0  0
 36 37  2  0  0  0
 37 38  1  0  0  0
 38 39  2  0  0  0
 32 27  1  0  0  0
 39 34  1  0  0  0
  9  1  1  0  0  0
  8  4  1  0  0  0
 16 11  1  0  0  0
 23 18  1  0  0  0
 28 33  1  0  0  0
 24 25  1  0  0  0
  5 10  1  0  0  0
M  END
> <minimizedAffinity>
-10.49092

> <CNNscore>
0.2969502211

> <CNNaffinity>
7.5332612991

> <CNN_VS>
2.2370035648

> <CNNaffinity_variance>
0.0315339379

$$$$
[H]c1nc2c(nc1N([H])C1=C(c3c([H])c([H])c([H])c([H])c3[H])C(=O)N([H])C1=O)c(-c1c([H])c([H])c(C([H])([H])N3C([H])([H])C([H])([H])C([H])([H])C([H])([H])C3([H])[H])c([H])c1[H])c([H])n2[H]


 39 44  0  0  0  0  0  0  0  0999 V2000
   59.7217   -6.0888   -9.0318 C   0  0  0  0  0  0  0  0  0  0  0  0
   60.0752   -5.6606  -10.2950 C   0  0  0  0  0  0  0  0  0  0  0  0
   59.1922   -4.9923  -11.0764 N   0  0  0  0  0  0  0  0  0  0  0  0
   57.9593   -4.7600  -10.5800 C   0  0  0  0  0  0  0  0  0  0  0  0
   56.8792   -4.1411  -11.0856 N   0  0  0  0  0  0  0  0  0  0  0  0
   55.8636   -4.1518  -10.2173 C   0  0  0  0  0  0  0  0  0  0  0  0
   56.2812   -4.8152   -9.0606 C   0  0  0  0  0  0  0  0  0  0  0  0
   57.5865   -5.1845   -9.3086 C   0  0  0  0  0  0  0  0  0  0  0  0
   58.4855   -5.8409   -8.5677 N   0  0  0  0  0  0  0  0  0  0  0  0
   56.8533   -3.7093  -12.0429 H   0  0  0  0  0  0  0  0  0  0  0  0
   55.4746   -5.0401   -7.8675 C   0  0  0  0  0  0  0  0  0  0  0  0
   54.0831   -5.0459   -7.9073 C   0  0  0  0  0  0  0  0  0  0  0  0
   53.3424   -5.2558   -6.7731 C   0  0  0  0  0  0  0  0  0  0  0  0
   53.9648   -5.4664   -5.5627 C   0  0  0  0  0  0  0  0  0  0  0  0
   55.3595   -5.4612   -5.5196 C   0  0  0  0  0  0  0  0  0  0  0  0
   56.0792   -5.2518   -6.6518 C   0  0  0  0  0  0  0  0  0  0  0  0
   53.1541   -5.6850   -4.3605 C   0  0  0  0  0  0  0  0  0  0  0  0
   53.9152   -6.2017   -3.2735 N   0  0  0  0  0  0  0  0  0  0  0  0
   53.1482   -7.2895   -2.6796 C   0  0  0  0  0  0  0  0  0  0  0  0
   53.7230   -7.6503   -1.3271 C   0  0  0  0  0  0  0  0  0  0  0  0
   53.5699   -6.4878   -0.3858 C   0  0  0  0  0  0  0  0  0  0  0  0
   53.3627   -5.1756   -1.1169 C   0  0  0  0  0  0  0  0  0  0  0  0
   54.3140   -5.2236   -2.3190 C   0  0  0  0  0  0  0  0  0  0  0  0
   60.6803   -6.7904   -8.2377 N   0  0  0  0  0  0  0  0  0  0  0  0
   60.5760   -6.7558   -7.2029 H   0  0  0  0  0  0  0  0  0  0  0  0
   64.9976   -8.4494   -9.5187 O   0  0  0  0  0  0  0  0  0  0  0  0
   63.7445   -8.2982   -9.4903 C   0  0  0  0  0  0  0  0  0  0  0  0
   62.8043   -8.9738  -10.2956 N   0  0  0  0  0  0  0  0  0  0  0  0
   61.5304   -8.5060   -9.9371 C   0  0  0  0  0  0  0  0  0  0  0  0
   60.4114   -8.8657  -10.4295 O   0  0  0  0  0  0  0  0  0  0  0  0
   61.7438   -7.5201   -8.8824 C   0  0  0  0  0  0  0  0  0  0  0  0
   63.0243   -7.3712   -8.5936 C   0  0  0  0  0  0  0  0  0  0  0  0
   62.9972   -9.6996  -11.0358 H   0  0  0  0  0  0  0  0  0  0  0  0
   63.6387   -6.4922   -7.6011 C   0  0  0  0  0  0  0  0  0  0  0  0
   63.7458   -6.8064   -6.2679 C   0  0  0  0  0  0  0  0  0  0  0  0
   64.3285   -5.9482   -5.3547 C   0  0  0  0  0  0  0  0  0  0  0  0
   64.8238   -4.7401   -5.7616 C   0  0  0  0  0  0  0  0  0  0  0  0
   64.7243   -4.4015   -7.1179 C   0  0  0  0  0  0  0  0  0  0  0  0
   64.1375   -5.2767   -8.0099 C   0  0  0  0  0  0  0  0  0  0  0  0
 26 27  2  0  0  0
 27 28  1  0  0  0
 28 29  1  0  0  0
 29 30  2  0  0  0
 29 31  1  0  0  0
 31 24  1  0  0  0
 24  1  1  0  0  0
  1  2  2  0  0  0
  2  3  1  0  0  0
  3  4  2  0  0  0
  4  5  1  0  0  0
  5  6  1  0  0  0
  6  7  2  0  0  0
  7 11  1  0  0  0
 11 12  2  0  0  0
 12 13  1  0  0  0
 13 14  2  0  0  0
 14 17  1  0  0  0
 17 18  1  0  0  0
 18 19  1  0  0  0
 19 20  1  0  0  0
 20 21  1  0  0  0
 21 22  1  0  0  0
 22 23  1  0  0  0
 14 15  1  0  0  0
 15 16  2  0  0  0
  7  8  1  0  0  0
  8  9  2  0  0  0
 31 32  2  0  0  0
 32 34  1  0  0  0
 34 35  2  0  0  0
 35 36  1  0  0  0
 36 37  2  0  0  0
 37 38  1  0  0  0
 38 39  2  0  0  0
 32 27  1  0  0  0
 39 34  1  0  0  0
  9  1  1  0  0  0
  8  4  1  0  0  0
 16 11  1  0  0  0
 23 18  1  0  0  0
 28 33  1  0  0  0
 24 25  1  0  0  0
  5 10  1  0  0  0
M  END
> <minimizedAffinity>
-8.02828

> <CNNscore>
0.2889285386

> <CNNaffinity>
6.0876398087

> <CNN_VS>
1.7588928938

> <CNNaffinity_variance>
0.3698357940

$$$$
[H]c1nc2c(nc1N([H])C1=C(c3c([H])c([H])c([H])c([H])c3[H])C(=O)N([H])C1=O)c(-c1c([H])c([H])c(C([H])([H])N3C([H])([H])C([H])([H])C([H])([H])C([H])([H])C3([H])[H])c([H])c1[H])c([H])n2[H]


 39 44  0  0  0  0  0  0  0  0999 V2000
   56.3635   -4.6111   -6.8797 C   0  0  0  0  0  0  0  0  0  0  0  0
   55.4725   -3.8598   -7.6182 C   0  0  0  0  0  0  0  0  0  0  0  0
   55.6329   -3.7042   -8.9550 N   0  0  0  0  0  0  0  0  0  0  0  0
   56.6897   -4.3066   -9.5386 C   0  0  0  0  0  0  0  0  0  0  0  0
   57.1221   -4.3489  -10.8100 N   0  0  0  0  0  0  0  0  0  0  0  0
   58.2334   -5.0828  -10.9200 C   0  0  0  0  0  0  0  0  0  0  0  0
   58.5705   -5.5627   -9.6517 C   0  0  0  0  0  0  0  0  0  0  0  0
   57.5975   -5.0678   -8.8090 C   0  0  0  0  0  0  0  0  0  0  0  0
   57.4056   -5.1978   -7.4921 N   0  0  0  0  0  0  0  0  0  0  0  0
   56.6368   -3.8619  -11.6042 H   0  0  0  0  0  0  0  0  0  0  0  0
   59.7144   -6.4091   -9.3358 C   0  0  0  0  0  0  0  0  0  0  0  0
   60.6466   -6.0578   -8.3634 C   0  0  0  0  0  0  0  0  0  0  0  0
   61.7178   -6.8660   -8.0836 C   0  0  0  0  0  0  0  0  0  0  0  0
   61.8944   -8.0503   -8.7640 C   0  0  0  0  0  0  0  0  0  0  0  0
   60.9617   -8.4053   -9.7393 C   0  0  0  0  0  0  0  0  0  0  0  0
   59.9059   -7.5939  -10.0050 C   0  0  0  0  0  0  0  0  0  0  0  0
   63.0492   -8.8987   -8.4523 C   0  0  0  0  0  0  0  0  0  0  0  0
   62.8529   -9.6809   -7.2787 N   0  0  0  0  0  0  0  0  0  0  0  0
   63.8790  -10.7161   -7.2655 C   0  0  0  0  0  0  0  0  0  0  0  0
   63.5268  -11.7814   -6.2502 C   0  0  0  0  0  0  0  0  0  0  0  0
   62.2587  -12.4753   -6.6640 C   0  0  0  0  0  0  0  0  0  0  0  0
   61.4420  -11.6524   -7.6413 C   0  0  0  0  0  0  0  0  0  0  0  0
   61.5377  -10.2070   -7.1372 C   0  0  0  0  0  0  0  0  0  0  0  0
   56.1610   -4.7519   -5.4723 N   0  0  0  0  0  0  0  0  0  0  0  0
   56.1333   -3.8871   -4.8940 H   0  0  0  0  0  0  0  0  0  0  0  0
   54.2825   -8.8835   -3.9124 O   0  0  0  0  0  0  0  0  0  0  0  0
   55.1367   -7.9905   -4.1706 C   0  0  0  0  0  0  0  0  0  0  0  0
   56.5182   -8.0527   -3.8940 N   0  0  0  0  0  0  0  0  0  0  0  0
   57.0915   -6.8532   -4.3443 C   0  0  0  0  0  0  0  0  0  0  0  0
   58.3185   -6.5148   -4.2804 O   0  0  0  0  0  0  0  0  0  0  0  0
   55.9967   -6.0666   -4.9031 C   0  0  0  0  0  0  0  0  0  0  0  0
   54.8390   -6.6975   -4.8201 C   0  0  0  0  0  0  0  0  0  0  0  0
   57.0459   -8.8420   -3.4356 H   0  0  0  0  0  0  0  0  0  0  0  0
   53.5225   -6.2498   -5.2689 C   0  0  0  0  0  0  0  0  0  0  0  0
   52.5777   -5.7048   -4.4333 C   0  0  0  0  0  0  0  0  0  0  0  0
   51.3392   -5.2966   -4.8909 C   0  0  0  0  0  0  0  0  0  0  0  0
   51.0147   -5.4266   -6.2130 C   0  0  0  0  0  0  0  0  0  0  0  0
   51.9652   -5.9801   -7.0814 C   0  0  0  0  0  0  0  0  0  0  0  0
   53.1955   -6.3800   -6.5990 C   0  0  0  0  0  0  0  0  0  0  0  0
 26 27  2  0  0  0
 27 28  1  0  0  0
 28 29  1  0  0  0
 29 30  2  0  0  0
 29 31  1  0  0  0
 31 24  1  0  0  0
 24  1  1  0  0  0
  1  2  2  0  0  0
  2  3  1  0  0  0
  3  4  2  0  0  0
  4  5  1  0  0  0
  5  6  1  0  0  0
  6  7  2  0  0  0
  7 11  1  0  0  0
 11 12  2  0  0  0
 12 13  1  0  0  0
 13 14  2  0  0  0
 14 17  1  0  0  0
 17 18  1  0  0  0
 18 19  1  0  0  0
 19 20  1  0  0  0
 20 21  1  0  0  0
 21 22  1  0  0  0
 22 23  1  0  0  0
 14 15  1  0  0  0
 15 16  2  0  0  0
  7  8  1  0  0  0
  8  9  2  0  0  0
 31 32  2  0  0  0
 32 34  1  0  0  0
 34 35  2  0  0  0
 35 36  1  0  0  0
 36 37  2  0  0  0
 37 38  1  0  0  0
 38 39  2  0  0  0
 32 27  1  0  0  0
 39 34  1  0  0  0
  9  1  1  0  0  0
  8  4  1  0  0  0
 16 11  1  0  0  0
 23 18  1  0  0  0
 28 33  1  0  0  0
 24 25  1  0  0  0
  5 10  1  0  0  0
M  END
> <minimizedAffinity>
-7.33778

> <CNNscore>
0.2718771696

> <CNNaffinity>
6.4082727432

> <CNN_VS>
1.7422630787

> <CNNaffinity_variance>
0.3461892009

$$$$
[H]c1nc2c(nc1N([H])C1=C(c3c([H])c([H])c([H])c([H])c3[H])C(=O)N([H])C1=O)c(-c1c([H])c([H])c(C([H])([H])N3C([H])([H])C([H])([H])C([H])([H])C([H])([H])C3([H])[H])c([H])c1[H])c([H])n2[H]


 39 44  0  0  0  0  0  0  0  0999 V2000
   52.0180   -5.6688   -5.1307 C   0  0  0  0  0  0  0  0  0  0  0  0
   50.8331   -5.4265   -4.4666 C   0  0  0  0  0  0  0  0  0  0  0  0
   50.7861   -5.4019   -3.1123 N   0  0  0  0  0  0  0  0  0  0  0  0
   51.9330   -5.6215   -2.4364 C   0  0  0  0  0  0  0  0  0  0  0  0
   52.2195   -5.6633   -1.1244 N   0  0  0  0  0  0  0  0  0  0  0  0
   53.5152   -5.9171   -0.9189 C   0  0  0  0  0  0  0  0  0  0  0  0
   54.1386   -6.0546   -2.1619 C   0  0  0  0  0  0  0  0  0  0  0  0
   53.1363   -5.8671   -3.0902 C   0  0  0  0  0  0  0  0  0  0  0  0
   53.1424   -5.8835   -4.4273 N   0  0  0  0  0  0  0  0  0  0  0  0
   51.5044   -5.5134   -0.3696 H   0  0  0  0  0  0  0  0  0  0  0  0
   55.5528   -6.3316   -2.3813 C   0  0  0  0  0  0  0  0  0  0  0  0
   55.9891   -7.1997   -3.3782 C   0  0  0  0  0  0  0  0  0  0  0  0
   57.3237   -7.4496   -3.5662 C   0  0  0  0  0  0  0  0  0  0  0  0
   58.2664   -6.8426   -2.7665 C   0  0  0  0  0  0  0  0  0  0  0  0
   57.8322   -5.9718   -1.7663 C   0  0  0  0  0  0  0  0  0  0  0  0
   56.5066   -5.7345   -1.5926 C   0  0  0  0  0  0  0  0  0  0  0  0
   59.6888   -7.1266   -2.9814 C   0  0  0  0  0  0  0  0  0  0  0  0
   59.9034   -8.3456   -3.6858 N   0  0  0  0  0  0  0  0  0  0  0  0
   60.2919   -9.3541   -2.7078 C   0  0  0  0  0  0  0  0  0  0  0  0
   60.8662  -10.5641   -3.4119 C   0  0  0  0  0  0  0  0  0  0  0  0
   62.1347  -10.1813   -4.1226 C   0  0  0  0  0  0  0  0  0  0  0  0
   62.2344   -8.6874   -4.3627 C   0  0  0  0  0  0  0  0  0  0  0  0
   60.8231   -8.2442   -4.7677 C   0  0  0  0  0  0  0  0  0  0  0  0
   52.0276   -5.6868   -6.5595 N   0  0  0  0  0  0  0  0  0  0  0  0
   52.0557   -6.6116   -7.0359 H   0  0  0  0  0  0  0  0  0  0  0  0
   53.2746   -1.8086   -9.0965 O   0  0  0  0  0  0  0  0  0  0  0  0
   52.5577   -2.6343   -8.4655 C   0  0  0  0  0  0  0  0  0  0  0  0
   51.1691   -2.5326   -8.2411 N   0  0  0  0  0  0  0  0  0  0  0  0
   50.7793   -3.6596   -7.5007 C   0  0  0  0  0  0  0  0  0  0  0  0
   49.6059   -3.9451   -7.0936 O   0  0  0  0  0  0  0  0  0  0  0  0
   51.9919   -4.4435   -7.2890 C   0  0  0  0  0  0  0  0  0  0  0  0
   53.0516   -3.8771   -7.8380 C   0  0  0  0  0  0  0  0  0  0  0  0
   50.5222   -1.7635   -8.5598 H   0  0  0  0  0  0  0  0  0  0  0  0
   54.4342   -4.3495   -7.8503 C   0  0  0  0  0  0  0  0  0  0  0  0
   55.0933   -4.8055   -6.7342 C   0  0  0  0  0  0  0  0  0  0  0  0
   56.4043   -5.2402   -6.7807 C   0  0  0  0  0  0  0  0  0  0  0  0
   57.0939   -5.2280   -7.9616 C   0  0  0  0  0  0  0  0  0  0  0  0
   56.4389   -4.7667   -9.1114 C   0  0  0  0  0  0  0  0  0  0  0  0
   55.1286   -4.3378   -9.0381 C   0  0  0  0  0  0  0  0  0  0  0  0
 26 27  2  0  0  0
 27 28  1  0  0  0
 28 29  1  0  0  0
 29 30  2  0  0  0
 29 31  1  0  0  0
 31 24  1  0  0  0
 24  1  1  0  0  0
  1  2  2  0  0  0
  2  3  1  0  0  0
  3  4  2  0  0  0
  4  5  1  0  0  0
  5  6  1  0  0  0
  6  7  2  0  0  0
  7 11  1  0  0  0
 11 12  2  0  0  0
 12 13  1  0  0  0
 13 14  2  0  0  0
 14 17  1  0  0  0
 17 18  1  0  0  0
 18 19  1  0  0  0
 19 20  1  0  0  0
 20 21  1  0  0  0
 21 22  1  0  0  0
 22 23  1  0  0  0
 14 15  1  0  0  0
 15 16  2  0  0  0
  7  8  1  0  0  0
  8  9  2  0  0  0
 31 32  2  0  0  0
 32 34  1  0  0  0
 34 35  2  0  0  0
 35 36  1  0  0  0
 36 37  2  0  0  0
 37 38  1  0  0  0
 38 39  2  0  0  0
 32 27  1  0  0  0
 39 34  1  0  0  0
  9  1  1  0  0  0
  8  4  1  0  0  0
 16 11  1  0  0  0
 23 18  1  0  0  0
 28 33  1  0  0  0
 24 25  1  0  0  0
  5 10  1  0  0  0
M  END
> <minimizedAffinity>
-9.65298

> <CNNscore>
0.2612076998

> <CNNaffinity>
7.1868200302

> <CNN_VS>
1.8772526979

> <CNNaffinity_variance>
0.0374596491

$$$$
[H]c1c([H])c(-c2c([H])c([H])c(C(=O)N([H])c3c4c([H])c(Cl)c(C([H])([H])[H])c([H])c4nn3[H])c([H])c2[H])c([H])c([H])c1OC([H])([H])C([H])([H])N1C([H])([H])C([H])([H])C(F)(F)C1([H])[H]


 38 42  0  0  0  0  0  0  0  0999 V2000
   57.0185   -4.4481  -10.5873 C   0  0  0  0  0  0  0  0  0  0  0  0
   55.8655   -4.3461  -11.3628 C   0  0  0  0  0  0  0  0  0  0  0  0
   55.9510   -4.0603  -12.7047 C   0  0  0  0  0  0  0  0  0  0  0  0
   57.1629   -3.8650  -13.3327 C   0  0  0  0  0  0  0  0  0  0  0  0
   58.2984   -3.9688  -12.5523 C   0  0  0  0  0  0  0  0  0  0  0  0
   58.2600   -4.2523  -11.2098 C   0  0  0  0  0  0  0  0  0  0  0  0
   57.2095   -3.5654  -14.7518 C   0  0  0  0  0  0  0  0  0  0  0  0
   58.3290   -3.0412  -15.3496 C   0  0  0  0  0  0  0  0  0  0  0  0
   58.3612   -2.7605  -16.6988 C   0  0  0  0  0  0  0  0  0  0  0  0
   57.2909   -2.9873  -17.5055 C   0  0  0  0  0  0  0  0  0  0  0  0
   56.1447   -3.5242  -16.8910 C   0  0  0  0  0  0  0  0  0  0  0  0
   56.1224   -3.8002  -15.5467 C   0  0  0  0  0  0  0  0  0  0  0  0
   57.2134   -2.7530  -18.8331 O   0  0  0  0  0  0  0  0  0  0  0  0
   56.2921   -2.1384  -19.6416 C   0  0  0  0  0  0  0  0  0  0  0  0
   55.7980   -0.7942  -19.2583 C   0  0  0  0  0  0  0  0  0  0  0  0
   54.3715   -0.6852  -19.1341 N   0  0  0  0  0  0  0  0  0  0  0  0
   53.9904    0.7091  -19.1174 C   0  0  0  0  0  0  0  0  0  0  0  0
   53.4821    0.9843  -17.7192 C   0  0  0  0  0  0  0  0  0  0  0  0
   52.9161   -0.3317  -17.2999 C   0  0  0  0  0  0  0  0  0  0  0  0
   52.9748   -0.5100  -15.9202 F   0  0  0  0  0  0  0  0  0  0  0  0
   51.6154   -0.4200  -17.7599 F   0  0  0  0  0  0  0  0  0  0  0  0
   53.8074   -1.3301  -18.0080 C   0  0  0  0  0  0  0  0  0  0  0  0
   56.0031   -4.4120   -8.2655 N   0  0  0  0  0  0  0  0  0  0  0  0
   56.9667   -4.7920   -9.1883 C   0  0  0  0  0  0  0  0  0  0  0  0
   57.9630   -5.5457   -8.8057 O   0  0  0  0  0  0  0  0  0  0  0  0
   56.1705   -4.7915   -7.2630 H   0  0  0  0  0  0  0  0  0  0  0  0
   49.6783   -4.0212   -6.3550 C   0  0  0  0  0  0  0  0  0  0  0  0
   51.0660   -3.9711   -6.8760 C   0  0  0  0  0  0  0  0  0  0  0  0
   51.4541   -2.9737   -7.7568 C   0  0  0  0  0  0  0  0  0  0  0  0
   52.7644   -2.9634   -8.2204 C   0  0  0  0  0  0  0  0  0  0  0  0
   53.3910   -2.1393   -9.0545 N   0  0  0  0  0  0  0  0  0  0  0  0
   54.6665   -2.5301   -9.2059 N   0  0  0  0  0  0  0  0  0  0  0  0
   54.8707   -3.6238   -8.4594 C   0  0  0  0  0  0  0  0  0  0  0  0
   53.6456   -3.9274   -7.8063 C   0  0  0  0  0  0  0  0  0  0  0  0
   53.2425   -4.9110   -6.9305 C   0  0  0  0  0  0  0  0  0  0  0  0
   51.9487   -4.9498   -6.4513 C   0  0  0  0  0  0  0  0  0  0  0  0
   51.4167   -6.1973   -5.3330 Cl  0  0  0  0  0  0  0  0  0  0  0  0
   55.3275   -2.0142   -9.8221 H   0  0  0  0  0  0  0  0  0  0  0  0
 27 28  1  0  0  0
 28 29  2  0  0  0
 29 30  1  0  0  0
 30 31  2  0  0  0
 31 32  1  0  0  0
 32 33  1  0  0  0
 33 23  1  0  0  0
 23 24  1  0  0  0
 24 25  2  0  0  0
 24  1  1  0  0  0
  1  2  2  0  0  0
  2  3  1  0  0  0
  3  4  2  0  0  0
  4  5  1  0  0  0
  5  6  2  0  0  0
  4  7  1  0  0  0
  7  8  2  0  0  0
  8  9  1  0  0  0
  9 10  2  0  0  0
 10 13  1  0  0  0
 13 14  1  0  0  0
 14 15  1  0  0  0
 15 16  1  0  0  0
 16 17  1  0  0  0
 17 18  1  0  0  0
 18 19  1  0  0  0
 19 20  1  0  0  0
 19 21  1  0  0  0
 19 22  1  0  0  0
 10 11  1  0  0  0
 11 12  2  0  0  0
 33 34  2  0  0  0
 34 35  1  0  0  0
 35 36  2  0  0  0
 36 37  1  0  0  0
 36 28  1  0  0  0
 34 30  1  0  0  0
  6  1  1  0  0  0
 12  7  1  0  0  0
 22 16  1  0  0  0
 32 38  1  0  0  0
 23 26  1  0  0  0
M  END
> <minimizedAffinity>
-10.20871

> <CNNscore>
0.8096536398

> <CNNaffinity>
7.3186721802

> <CNN_VS>
5.9255895615

> <CNNaffinity_variance>
0.0237617902

$$$$
[H]c1c([H])c(-c2c([H])c([H])c(C(=O)N([H])c3c4c([H])c(Cl)c(C([H])([H])[H])c([H])c4nn3[H])c([H])c2[H])c([H])c([H])c1OC([H])([H])C([H])([H])N1C([H])([H])C([H])([H])C(F)(F)C1([H])[H]


 38 42  0  0  0  0  0  0  0  0999 V2000
   56.8870   -4.5022  -10.3155 C   0  0  0  0  0  0  0  0  0  0  0  0
   55.7678   -4.3281  -11.1269 C   0  0  0  0  0  0  0  0  0  0  0  0
   55.9131   -4.0799  -12.4711 C   0  0  0  0  0  0  0  0  0  0  0  0
   57.1537   -3.9936  -13.0666 C   0  0  0  0  0  0  0  0  0  0  0  0
   58.2553   -4.1681  -12.2508 C   0  0  0  0  0  0  0  0  0  0  0  0
   58.1571   -4.4175  -10.9047 C   0  0  0  0  0  0  0  0  0  0  0  0
   57.2636   -3.7304  -14.4895 C   0  0  0  0  0  0  0  0  0  0  0  0
   56.2250   -3.9652  -15.3563 C   0  0  0  0  0  0  0  0  0  0  0  0
   56.3413   -3.7114  -16.7063 C   0  0  0  0  0  0  0  0  0  0  0  0
   57.4856   -3.2168  -17.2482 C   0  0  0  0  0  0  0  0  0  0  0  0
   58.5487   -2.9772  -16.3582 C   0  0  0  0  0  0  0  0  0  0  0  0
   58.4232   -3.2333  -15.0157 C   0  0  0  0  0  0  0  0  0  0  0  0
   57.7078   -2.9306  -18.5490 O   0  0  0  0  0  0  0  0  0  0  0  0
   58.8142   -2.9647  -19.3583 C   0  0  0  0  0  0  0  0  0  0  0  0
   59.4997   -4.2626  -19.5668 C   0  0  0  0  0  0  0  0  0  0  0  0
   60.9051   -4.2605  -19.2713 N   0  0  0  0  0  0  0  0  0  0  0  0
   61.2429   -5.4410  -18.5085 C   0  0  0  0  0  0  0  0  0  0  0  0
   61.6122   -4.9506  -17.1256 C   0  0  0  0  0  0  0  0  0  0  0  0
   62.1746   -3.5930  -17.3872 C   0  0  0  0  0  0  0  0  0  0  0  0
   61.9943   -2.7354  -16.3052 F   0  0  0  0  0  0  0  0  0  0  0  0
   63.5142   -3.7231  -17.7034 F   0  0  0  0  0  0  0  0  0  0  0  0
   61.3814   -3.1177  -18.5861 C   0  0  0  0  0  0  0  0  0  0  0  0
   55.7655   -4.4028   -8.0450 N   0  0  0  0  0  0  0  0  0  0  0  0
   56.7691   -4.8096   -8.9121 C   0  0  0  0  0  0  0  0  0  0  0  0
   57.7435   -5.5563   -8.4645 O   0  0  0  0  0  0  0  0  0  0  0  0
   55.8848   -4.7568   -7.0264 H   0  0  0  0  0  0  0  0  0  0  0  0
   49.4167   -3.8069   -6.2721 C   0  0  0  0  0  0  0  0  0  0  0  0
   50.8130   -3.8091   -6.7719 C   0  0  0  0  0  0  0  0  0  0  0  0
   51.2280   -2.8792   -7.7123 C   0  0  0  0  0  0  0  0  0  0  0  0
   52.5456   -2.9162   -8.1535 C   0  0  0  0  0  0  0  0  0  0  0  0
   53.1961   -2.1588   -9.0313 N   0  0  0  0  0  0  0  0  0  0  0  0
   54.4686   -2.5742   -9.1342 N   0  0  0  0  0  0  0  0  0  0  0  0
   54.6467   -3.6165   -8.3113 C   0  0  0  0  0  0  0  0  0  0  0  0
   53.4075   -3.8600   -7.6596 C   0  0  0  0  0  0  0  0  0  0  0  0
   52.9777   -4.7763   -6.7255 C   0  0  0  0  0  0  0  0  0  0  0  0
   51.6761   -4.7667   -6.2666 C   0  0  0  0  0  0  0  0  0  0  0  0
   51.1101   -5.9282   -5.0746 Cl  0  0  0  0  0  0  0  0  0  0  0  0
   55.1460   -2.1096   -9.7730 H   0  0  0  0  0  0  0  0  0  0  0  0
 27 28  1  0  0  0
 28 29  2  0  0  0
 29 30  1  0  0  0
 30 31  2  0  0  0
 31 32  1  0  0  0
 32 33  1  0  0  0
 33 23  1  0  0  0
 23 24  1  0  0  0
 24 25  2  0  0  0
 24  1  1  0  0  0
  1  2  2  0  0  0
  2  3  1  0  0  0
  3  4  2  0  0  0
  4  5  1  0  0  0
  5  6  2  0  0  0
  4  7  1  0  0  0
  7  8  2  0  0  0
  8  9  1  0  0  0
  9 10  2  0  0  0
 10 13  1  0  0  0
 13 14  1  0  0  0
 14 15  1  0  0  0
 15 16  1  0  0  0
 16 17  1  0  0  0
 17 18  1  0  0  0
 18 19  1  0  0  0
 19 20  1  0  0  0
 19 21  1  0  0  0
 19 22  1  0  0  0
 10 11  1  0  0  0
 11 12  2  0  0  0
 33 34  2  0  0  0
 34 35  1  0  0  0
 35 36  2  0  0  0
 36 37  1  0  0  0
 36 28  1  0  0  0
 34 30  1  0  0  0
  6  1  1  0  0  0
 12  7  1  0  0  0
 22 16  1  0  0  0
 32 38  1  0  0  0
 23 26  1  0  0  0
M  END
> <minimizedAffinity>
-9.20581

> <CNNscore>
0.6943448186

> <CNNaffinity>
7.1379594803

> <CNN_VS>
4.9562053680

> <CNNaffinity_variance>
0.2220691890

$$$$
[H]c1c([H])c(-c2c([H])c([H])c(C(=O)N([H])c3c4c([H])c(Cl)c(C([H])([H])[H])c([H])c4nn3[H])c([H])c2[H])c([H])c([H])c1OC([H])([H])C([H])([H])N1C([H])([H])C([H])([H])C(F)(F)C1([H])[H]


 38 42  0  0  0  0  0  0  0  0999 V2000
   52.6858   -3.9428   -7.9841 C   0  0  0  0  0  0  0  0  0  0  0  0
   53.6199   -4.7607   -7.3516 C   0  0  0  0  0  0  0  0  0  0  0  0
   53.3356   -5.3308   -6.1335 C   0  0  0  0  0  0  0  0  0  0  0  0
   52.1322   -5.1217   -5.4937 C   0  0  0  0  0  0  0  0  0  0  0  0
   51.2149   -4.3087   -6.1316 C   0  0  0  0  0  0  0  0  0  0  0  0
   51.4562   -3.7191   -7.3475 C   0  0  0  0  0  0  0  0  0  0  0  0
   51.8715   -5.7426   -4.2083 C   0  0  0  0  0  0  0  0  0  0  0  0
   50.7462   -5.4564   -3.4755 C   0  0  0  0  0  0  0  0  0  0  0  0
   50.5095   -6.0525   -2.2554 C   0  0  0  0  0  0  0  0  0  0  0  0
   51.3740   -6.9521   -1.7156 C   0  0  0  0  0  0  0  0  0  0  0  0
   52.5266   -7.2438   -2.4680 C   0  0  0  0  0  0  0  0  0  0  0  0
   52.7535   -6.6447   -3.6819 C   0  0  0  0  0  0  0  0  0  0  0  0
   51.2417   -7.5949   -0.5355 O   0  0  0  0  0  0  0  0  0  0  0  0
   50.2982   -8.4392   -0.0091 C   0  0  0  0  0  0  0  0  0  0  0  0
   50.0895   -8.4413    1.4588 C   0  0  0  0  0  0  0  0  0  0  0  0
   48.8772   -9.0735    1.8979 N   0  0  0  0  0  0  0  0  0  0  0  0
   49.0927  -10.4965    2.0326 C   0  0  0  0  0  0  0  0  0  0  0  0
   48.2703  -11.1465    0.9416 C   0  0  0  0  0  0  0  0  0  0  0  0
   47.1263  -10.2027    0.7726 C   0  0  0  0  0  0  0  0  0  0  0  0
   46.6145  -10.2286   -0.5220 F   0  0  0  0  0  0  0  0  0  0  0  0
   46.1520  -10.5188    1.7011 F   0  0  0  0  0  0  0  0  0  0  0  0
   47.7450   -8.8549    1.0779 C   0  0  0  0  0  0  0  0  0  0  0  0
   54.1255   -3.3794   -9.9923 N   0  0  0  0  0  0  0  0  0  0  0  0
   52.9337   -3.3674   -9.2824 C   0  0  0  0  0  0  0  0  0  0  0  0
   51.8836   -2.7841   -9.7965 O   0  0  0  0  0  0  0  0  0  0  0  0
   54.0772   -2.8806  -10.9546 H   0  0  0  0  0  0  0  0  0  0  0  0
   60.1040   -4.6173  -12.5477 C   0  0  0  0  0  0  0  0  0  0  0  0
   58.8213   -4.4104  -11.8327 C   0  0  0  0  0  0  0  0  0  0  0  0
   58.6723   -4.8191  -10.5167 C   0  0  0  0  0  0  0  0  0  0  0  0
   57.4534   -4.6056   -9.8839 C   0  0  0  0  0  0  0  0  0  0  0  0
   57.0451   -4.8921   -8.6515 N   0  0  0  0  0  0  0  0  0  0  0  0
   55.7732   -4.4939   -8.4905 N   0  0  0  0  0  0  0  0  0  0  0  0
   55.3495   -3.9409   -9.6350 C   0  0  0  0  0  0  0  0  0  0  0  0
   56.4264   -4.0012  -10.5603 C   0  0  0  0  0  0  0  0  0  0  0  0
   56.5923   -3.6015  -11.8679 C   0  0  0  0  0  0  0  0  0  0  0  0
   57.7898   -3.7987  -12.5252 C   0  0  0  0  0  0  0  0  0  0  0  0
   58.0197   -3.2950  -14.1935 Cl  0  0  0  0  0  0  0  0  0  0  0  0
   55.2670   -4.6288   -7.5914 H   0  0  0  0  0  0  0  0  0  0  0  0
 27 28  1  0  0  0
 28 29  2  0  0  0
 29 30  1  0  0  0
 30 31  2  0  0  0
 31 32  1  0  0  0
 32 33  1  0  0  0
 33 23  1  0  0  0
 23 24  1  0  0  0
 24 25  2  0  0  0
 24  1  1  0  0  0
  1  2  2  0  0  0
  2  3  1  0  0  0
  3  4  2  0  0  0
  4  5  1  0  0  0
  5  6  2  0  0  0
  4  7  1  0  0  0
  7  8  2  0  0  0
  8  9  1  0  0  0
  9 10  2  0  0  0
 10 13  1  0  0  0
 13 14  1  0  0  0
 14 15  1  0  0  0
 15 16  1  0  0  0
 16 17  1  0  0  0
 17 18  1  0  0  0
 18 19  1  0  0  0
 19 20  1  0  0  0
 19 21  1  0  0  0
 19 22  1  0  0  0
 10 11  1  0  0  0
 11 12  2  0  0  0
 33 34  2  0  0  0
 34 35  1  0  0  0
 35 36  2  0  0  0
 36 37  1  0  0  0
 36 28  1  0  0  0
 34 30  1  0  0  0
  6  1  1  0  0  0
 12  7  1  0  0  0
 22 16  1  0  0  0
 32 38  1  0  0  0
 23 26  1  0  0  0
M  END
> <minimizedAffinity>
-10.29005

> <CNNscore>
0.4607264698

> <CNNaffinity>
6.6520967484

> <CNN_VS>
3.0647971630

> <CNNaffinity_variance>
0.2454616725

$$$$
[H]c1c([H])c(-c2c([H])c([H])c(C(=O)N([H])c3c4c([H])c(Cl)c(C([H])([H])[H])c([H])c4nn3[H])c([H])c2[H])c([H])c([H])c1OC([H])([H])C([H])([H])N1C([H])([H])C([H])([H])C(F)(F)C1([H])[H]


 38 42  0  0  0  0  0  0  0  0999 V2000
   54.8264   -4.4705   -8.0427 C   0  0  0  0  0  0  0  0  0  0  0  0
   54.5717   -5.6856   -7.4101 C   0  0  0  0  0  0  0  0  0  0  0  0
   55.0453   -5.9238   -6.1418 C   0  0  0  0  0  0  0  0  0  0  0  0
   55.7820   -4.9855   -5.4504 C   0  0  0  0  0  0  0  0  0  0  0  0
   56.0276   -3.7850   -6.0891 C   0  0  0  0  0  0  0  0  0  0  0  0
   55.5745   -3.5044   -7.3540 C   0  0  0  0  0  0  0  0  0  0  0  0
   56.2633   -5.2766   -4.1127 C   0  0  0  0  0  0  0  0  0  0  0  0
   56.3335   -4.3125   -3.1376 C   0  0  0  0  0  0  0  0  0  0  0  0
   56.7927   -4.6011   -1.8703 C   0  0  0  0  0  0  0  0  0  0  0  0
   57.1983   -5.8505   -1.5204 C   0  0  0  0  0  0  0  0  0  0  0  0
   57.1259   -6.8368   -2.5212 C   0  0  0  0  0  0  0  0  0  0  0  0
   56.6673   -6.5395   -3.7802 C   0  0  0  0  0  0  0  0  0  0  0  0
   57.6614   -6.2435   -0.3144 O   0  0  0  0  0  0  0  0  0  0  0  0
   57.2380   -6.0595    0.9768 C   0  0  0  0  0  0  0  0  0  0  0  0
   56.6098   -7.2001    1.6857 C   0  0  0  0  0  0  0  0  0  0  0  0
   55.1878   -7.3095    1.5177 N   0  0  0  0  0  0  0  0  0  0  0  0
   54.8810   -8.4765    0.7216 C   0  0  0  0  0  0  0  0  0  0  0  0
   54.3429   -7.9536   -0.5922 C   0  0  0  0  0  0  0  0  0  0  0  0
   53.6945   -6.6664   -0.2038 C   0  0  0  0  0  0  0  0  0  0  0  0
   53.6987   -5.7437   -1.2466 F   0  0  0  0  0  0  0  0  0  0  0  0
   52.4065   -6.9317    0.2229 F   0  0  0  0  0  0  0  0  0  0  0  0
   54.5539   -6.1817    0.9446 C   0  0  0  0  0  0  0  0  0  0  0  0
   53.1499   -3.4656   -9.6559 N   0  0  0  0  0  0  0  0  0  0  0  0
   54.3054   -4.1709   -9.3530 C   0  0  0  0  0  0  0  0  0  0  0  0
   55.0455   -4.6412  -10.3217 O   0  0  0  0  0  0  0  0  0  0  0  0
   52.9549   -3.3629  -10.7182 H   0  0  0  0  0  0  0  0  0  0  0  0
   49.5008   -4.9646   -4.3415 C   0  0  0  0  0  0  0  0  0  0  0  0
   50.2506   -4.4745   -5.5235 C   0  0  0  0  0  0  0  0  0  0  0  0
   50.0937   -3.1713   -5.9689 C   0  0  0  0  0  0  0  0  0  0  0  0
   50.8159   -2.7527   -7.0802 C   0  0  0  0  0  0  0  0  0  0  0  0
   50.8559   -1.5811   -7.7073 N   0  0  0  0  0  0  0  0  0  0  0  0
   51.7085   -1.6490   -8.7422 N   0  0  0  0  0  0  0  0  0  0  0  0
   52.2294   -2.8826   -8.7876 C   0  0  0  0  0  0  0  0  0  0  0  0
   51.6637   -3.6226   -7.7142 C   0  0  0  0  0  0  0  0  0  0  0  0
   51.8071   -4.9141   -7.2577 C   0  0  0  0  0  0  0  0  0  0  0  0
   51.1047   -5.3614   -6.1570 C   0  0  0  0  0  0  0  0  0  0  0  0
   51.2754   -7.0060   -5.5602 Cl  0  0  0  0  0  0  0  0  0  0  0  0
   51.8822   -0.8320   -9.3627 H   0  0  0  0  0  0  0  0  0  0  0  0
 27 28  1  0  0  0
 28 29  2  0  0  0
 29 30  1  0  0  0
 30 31  2  0  0  0
 31 32  1  0  0  0
 32 33  1  0  0  0
 33 23  1  0  0  0
 23 24  1  0  0  0
 24 25  2  0  0  0
 24  1  1  0  0  0
  1  2  2  0  0  0
  2  3  1  0  0  0
  3  4  2  0  0  0
  4  5  1  0  0  0
  5  6  2  0  0  0
  4  7  1  0  0  0
  7  8  2  0  0  0
  8  9  1  0  0  0
  9 10  2  0  0  0
 10 13  1  0  0  0
 13 14  1  0  0  0
 14 15  1  0  0  0
 15 16  1  0  0  0
 16 17  1  0  0  0
 17 18  1  0  0  0
 18 19  1  0  0  0
 19 20  1  0  0  0
 19 21  1  0  0  0
 19 22  1  0  0  0
 10 11  1  0  0  0
 11 12  2  0  0  0
 33 34  2  0  0  0
 34 35  1  0  0  0
 35 36  2  0  0  0
 36 37  1  0  0  0
 36 28  1  0  0  0
 34 30  1  0  0  0
  6  1  1  0  0  0
 12  7  1  0  0  0
 22 16  1  0  0  0
 32 38  1  0  0  0
 23 26  1  0  0  0
M  END
> <minimizedAffinity>
-8.58173

> <CNNscore>
0.4149285853

> <CNNaffinity>
7.2747550011

> <CNN_VS>
3.0185039043

> <CNNaffinity_variance>
0.3751704097

$$$$
[H]c1c([H])c(-c2c([H])c([H])c(C(=O)N([H])c3c4c([H])c(Cl)c(C([H])([H])[H])c([H])c4nn3[H])c([H])c2[H])c([H])c([H])c1OC([H])([H])C([H])([H])N1C([H])([H])C([H])([H])C(F)(F)C1([H])[H]


 38 42  0  0  0  0  0  0  0  0999 V2000
   54.1181   -4.3982   -8.2265 C   0  0  0  0  0  0  0  0  0  0  0  0
   55.1980   -4.0254   -7.4289 C   0  0  0  0  0  0  0  0  0  0  0  0
   55.3876   -4.6051   -6.1969 C   0  0  0  0  0  0  0  0  0  0  0  0
   54.5306   -5.5662   -5.7038 C   0  0  0  0  0  0  0  0  0  0  0  0
   53.4638   -5.9267   -6.5046 C   0  0  0  0  0  0  0  0  0  0  0  0
   53.2361   -5.3745   -7.7405 C   0  0  0  0  0  0  0  0  0  0  0  0
   54.7667   -6.1537   -4.3981 C   0  0  0  0  0  0  0  0  0  0  0  0
   54.8255   -5.3930   -3.2565 C   0  0  0  0  0  0  0  0  0  0  0  0
   55.0506   -5.9626   -2.0215 C   0  0  0  0  0  0  0  0  0  0  0  0
   55.2251   -7.3020   -1.8693 C   0  0  0  0  0  0  0  0  0  0  0  0
   55.1647   -8.0797   -3.0403 C   0  0  0  0  0  0  0  0  0  0  0  0
   54.9403   -7.5032   -4.2655 C   0  0  0  0  0  0  0  0  0  0  0  0
   55.4484   -7.9633   -0.7134 O   0  0  0  0  0  0  0  0  0  0  0  0
   54.8218   -7.9928    0.5059 C   0  0  0  0  0  0  0  0  0  0  0  0
   53.8310   -9.0642    0.7676 C   0  0  0  0  0  0  0  0  0  0  0  0
   52.4662   -8.7067    0.4996 N   0  0  0  0  0  0  0  0  0  0  0  0
   51.9260   -9.5799   -0.5179 C   0  0  0  0  0  0  0  0  0  0  0  0
   51.7125   -8.7126   -1.7391 C   0  0  0  0  0  0  0  0  0  0  0  0
   51.4249   -7.3698   -1.1543 C   0  0  0  0  0  0  0  0  0  0  0  0
   51.8122   -6.3363   -2.0032 F   0  0  0  0  0  0  0  0  0  0  0  0
   50.0759   -7.2956   -0.8605 F   0  0  0  0  0  0  0  0  0  0  0  0
   52.2538   -7.3623    0.1127 C   0  0  0  0  0  0  0  0  0  0  0  0
   54.8600   -3.7103  -10.5501 N   0  0  0  0  0  0  0  0  0  0  0  0
   53.9166   -3.8440   -9.5419 C   0  0  0  0  0  0  0  0  0  0  0  0
   52.6913   -3.4401   -9.7488 O   0  0  0  0  0  0  0  0  0  0  0  0
   54.4791   -3.2619  -11.4617 H   0  0  0  0  0  0  0  0  0  0  0  0
   60.1225   -3.8640  -14.5611 C   0  0  0  0  0  0  0  0  0  0  0  0
   59.0441   -3.8942  -13.5435 C   0  0  0  0  0  0  0  0  0  0  0  0
   59.2939   -4.3636  -12.2634 C   0  0  0  0  0  0  0  0  0  0  0  0
   58.2549   -4.3741  -11.3402 C   0  0  0  0  0  0  0  0  0  0  0  0
   58.2173   -4.7630  -10.0695 N   0  0  0  0  0  0  0  0  0  0  0  0
   56.9812   -4.5852   -9.5767 N   0  0  0  0  0  0  0  0  0  0  0  0
   56.2051   -4.0736  -10.5416 C   0  0  0  0  0  0  0  0  0  0  0  0
   57.0117   -3.9260  -11.7023 C   0  0  0  0  0  0  0  0  0  0  0  0
   56.7816   -3.4631  -12.9789 C   0  0  0  0  0  0  0  0  0  0  0  0
   57.7915   -3.4392  -13.9194 C   0  0  0  0  0  0  0  0  0  0  0  0
   57.5163   -2.8517  -15.5531 Cl  0  0  0  0  0  0  0  0  0  0  0  0
   56.7434   -4.8303   -8.5937 H   0  0  0  0  0  0  0  0  0  0  0  0
 27 28  1  0  0  0
 28 29  2  0  0  0
 29 30  1  0  0  0
 30 31  2  0  0  0
 31 32  1  0  0  0
 32 33  1  0  0  0
 33 23  1  0  0  0
 23 24  1  0  0  0
 24 25  2  0  0  0
 24  1  1  0  0  0
  1  2  2  0  0  0
  2  3  1  0  0  0
  3  4  2  0  0  0
  4  5  1  0  0  0
  5  6  2  0  0  0
  4  7  1  0  0  0
  7  8  2  0  0  0
  8  9  1  0  0  0
  9 10  2  0  0  0
 10 13  1  0  0  0
 13 14  1  0  0  0
 14 15  1  0  0  0
 15 16  1  0  0  0
 16 17  1  0  0  0
 17 18  1  0  0  0
 18 19  1  0  0  0
 19 20  1  0  0  0
 19 21  1  0  0  0
 19 22  1  0  0  0
 10 11  1  0  0  0
 11 12  2  0  0  0
 33 34  2  0  0  0
 34 35  1  0  0  0
 35 36  2  0  0  0
 36 37  1  0  0  0
 36 28  1  0  0  0
 34 30  1  0  0  0
  6  1  1  0  0  0
 12  7  1  0  0  0
 22 16  1  0  0  0
 32 38  1  0  0  0
 23 26  1  0  0  0
M  END
> <minimizedAffinity>
-8.16230

> <CNNscore>
0.3400966823

> <CNNaffinity>
6.5846529007

> <CNN_VS>
2.2394185066

> <CNNaffinity_variance>
0.1036583632

$$$$
[H]c1c([H])c(-c2c([H])c([H])c(C(=O)N([H])c3c4c([H])c(Cl)c(C([H])([H])[H])c([H])c4nn3[H])c([H])c2[H])c([H])c([H])c1OC([H])([H])C([H])([H])N1C([H])([H])C([H])([H])C(F)(F)C1([H])[H]


 38 42  0  0  0  0  0  0  0  0999 V2000
   53.7160   -4.3963   -8.1959 C   0  0  0  0  0  0  0  0  0  0  0  0
   54.7568   -4.2442   -7.2821 C   0  0  0  0  0  0  0  0  0  0  0  0
   54.7329   -4.9122   -6.0809 C   0  0  0  0  0  0  0  0  0  0  0  0
   53.6939   -5.7492   -5.7327 C   0  0  0  0  0  0  0  0  0  0  0  0
   52.6682   -5.8911   -6.6477 C   0  0  0  0  0  0  0  0  0  0  0  0
   52.6508   -5.2439   -7.8580 C   0  0  0  0  0  0  0  0  0  0  0  0
   53.7073   -6.4363   -4.4546 C   0  0  0  0  0  0  0  0  0  0  0  0
   54.5950   -7.4471   -4.1798 C   0  0  0  0  0  0  0  0  0  0  0  0
   54.5979   -8.0927   -2.9618 C   0  0  0  0  0  0  0  0  0  0  0  0
   53.7259   -7.7636   -1.9723 C   0  0  0  0  0  0  0  0  0  0  0  0
   52.8169   -6.7278   -2.2561 C   0  0  0  0  0  0  0  0  0  0  0  0
   52.8218   -6.0912   -3.4720 C   0  0  0  0  0  0  0  0  0  0  0  0
   53.6419   -8.3250   -0.7472 O   0  0  0  0  0  0  0  0  0  0  0  0
   54.2776   -8.1072    0.4481 C   0  0  0  0  0  0  0  0  0  0  0  0
   55.7532   -8.2408    0.5004 C   0  0  0  0  0  0  0  0  0  0  0  0
   56.4756   -6.9999    0.4748 N   0  0  0  0  0  0  0  0  0  0  0  0
   55.6390   -5.9400    0.9907 C   0  0  0  0  0  0  0  0  0  0  0  0
   55.3358   -5.0394   -0.1866 C   0  0  0  0  0  0  0  0  0  0  0  0
   56.5479   -5.1857   -1.0453 C   0  0  0  0  0  0  0  0  0  0  0  0
   56.2597   -4.9908   -2.3936 F   0  0  0  0  0  0  0  0  0  0  0  0
   57.5103   -4.2953   -0.6067 F   0  0  0  0  0  0  0  0  0  0  0  0
   56.9791   -6.6145   -0.7902 C   0  0  0  0  0  0  0  0  0  0  0  0
   54.8026   -3.6489  -10.3600 N   0  0  0  0  0  0  0  0  0  0  0  0
   53.7324   -3.7470   -9.4829 C   0  0  0  0  0  0  0  0  0  0  0  0
   52.5852   -3.2104   -9.8040 O   0  0  0  0  0  0  0  0  0  0  0  0
   54.5816   -3.1107  -11.2759 H   0  0  0  0  0  0  0  0  0  0  0  0
   60.4628   -4.1650  -13.7514 C   0  0  0  0  0  0  0  0  0  0  0  0
   59.2740   -4.1286  -12.8655 C   0  0  0  0  0  0  0  0  0  0  0  0
   59.3254   -4.6729  -11.5918 C   0  0  0  0  0  0  0  0  0  0  0  0
   58.1885   -4.6170  -10.7941 C   0  0  0  0  0  0  0  0  0  0  0  0
   57.9646   -5.0522   -9.5580 N   0  0  0  0  0  0  0  0  0  0  0  0
   56.7015   -4.7716   -9.1998 N   0  0  0  0  0  0  0  0  0  0  0  0
   56.0967   -4.1453  -10.2182 C   0  0  0  0  0  0  0  0  0  0  0  0
   57.0449   -4.0319  -11.2707 C   0  0  0  0  0  0  0  0  0  0  0  0
   57.0119   -3.4961  -12.5391 C   0  0  0  0  0  0  0  0  0  0  0  0
   58.1233   -3.5351  -13.3565 C   0  0  0  0  0  0  0  0  0  0  0  0
   58.0997   -2.8562  -14.9778 Cl  0  0  0  0  0  0  0  0  0  0  0  0
   56.3273   -5.0317   -8.2643 H   0  0  0  0  0  0  0  0  0  0  0  0
 27 28  1  0  0  0
 28 29  2  0  0  0
 29 30  1  0  0  0
 30 31  2  0  0  0
 31 32  1  0  0  0
 32 33  1  0  0  0
 33 23  1  0  0  0
 23 24  1  0  0  0
 24 25  2  0  0  0
 24  1  1  0  0  0
  1  2  2  0  0  0
  2  3  1  0  0  0
  3  4  2  0  0  0
  4  5  1  0  0  0
  5  6  2  0  0  0
  4  7  1  0  0  0
  7  8  2  0  0  0
  8  9  1  0  0  0
  9 10  2  0  0  0
 10 13  1  0  0  0
 13 14  1  0  0  0
 14 15  1  0  0  0
 15 16  1  0  0  0
 16 17  1  0  0  0
 17 18  1  0  0  0
 18 19  1  0  0  0
 19 20  1  0  0  0
 19 21  1  0  0  0
 19 22  1  0  0  0
 10 11  1  0  0  0
 11 12  2  0  0  0
 33 34  2  0  0  0
 34 35  1  0  0  0
 35 36  2  0  0  0
 36 37  1  0  0  0
 36 28  1  0  0  0
 34 30  1  0  0  0
  6  1  1  0  0  0
 12  7  1  0  0  0
 22 16  1  0  0  0
 32 38  1  0  0  0
 23 26  1  0  0  0
M  END
> <minimizedAffinity>
-8.13354

> <CNNscore>
0.2435781062

> <CNNaffinity>
6.5534143448

> <CNN_VS>
1.5962682962

> <CNNaffinity_variance>
0.2316406965

$$$$
[H]c1c([H])c(-c2c([H])c([H])c(C(=O)N([H])c3c4c([H])c(Cl)c(C([H])([H])[H])c([H])c4nn3[H])c([H])c2[H])c([H])c([H])c1OC([H])([H])C([H])([H])N1C([H])([H])C([H])([H])C(F)(F)C1([H])[H]


 38 42  0  0  0  0  0  0  0  0999 V2000
   54.3833   -4.6474   -8.0816 C   0  0  0  0  0  0  0  0  0  0  0  0
   55.5178   -4.2375   -7.3841 C   0  0  0  0  0  0  0  0  0  0  0  0
   55.9782   -4.9654   -6.3127 C   0  0  0  0  0  0  0  0  0  0  0  0
   55.3474   -6.1154   -5.8876 C   0  0  0  0  0  0  0  0  0  0  0  0
   54.2236   -6.5107   -6.5877 C   0  0  0  0  0  0  0  0  0  0  0  0
   53.7289   -5.8151   -7.6626 C   0  0  0  0  0  0  0  0  0  0  0  0
   55.8662   -6.8551   -4.7519 C   0  0  0  0  0  0  0  0  0  0  0  0
   55.0574   -7.6242   -3.9522 C   0  0  0  0  0  0  0  0  0  0  0  0
   55.5618   -8.3223   -2.8758 C   0  0  0  0  0  0  0  0  0  0  0  0
   56.8812   -8.2865   -2.5510 C   0  0  0  0  0  0  0  0  0  0  0  0
   57.7082   -7.4976   -3.3716 C   0  0  0  0  0  0  0  0  0  0  0  0
   57.1965   -6.8060   -4.4410 C   0  0  0  0  0  0  0  0  0  0  0  0
   57.4805   -8.9291   -1.5256 O   0  0  0  0  0  0  0  0  0  0  0  0
   57.9912   -8.5303   -0.3172 C   0  0  0  0  0  0  0  0  0  0  0  0
   58.5151   -7.1491   -0.1906 C   0  0  0  0  0  0  0  0  0  0  0  0
   57.6098   -6.2099    0.4099 N   0  0  0  0  0  0  0  0  0  0  0  0
   56.5299   -6.9211    1.0561 C   0  0  0  0  0  0  0  0  0  0  0  0
   55.2878   -6.6134    0.2488 C   0  0  0  0  0  0  0  0  0  0  0  0
   55.5613   -5.2465   -0.2847 C   0  0  0  0  0  0  0  0  0  0  0  0
   54.9160   -5.0203   -1.4977 F   0  0  0  0  0  0  0  0  0  0  0  0
   55.1795   -4.3170    0.6649 F   0  0  0  0  0  0  0  0  0  0  0  0
   57.0642   -5.2436   -0.4681 C   0  0  0  0  0  0  0  0  0  0  0  0
   54.6183   -3.5981  -10.3765 N   0  0  0  0  0  0  0  0  0  0  0  0
   53.9012   -3.9332   -9.2373 C   0  0  0  0  0  0  0  0  0  0  0  0
   52.6440   -3.5899   -9.1434 O   0  0  0  0  0  0  0  0  0  0  0  0
   54.0454   -3.0561  -11.1216 H   0  0  0  0  0  0  0  0  0  0  0  0
   58.7365   -3.7438  -15.5557 C   0  0  0  0  0  0  0  0  0  0  0  0
   57.9458   -3.7580  -14.3011 C   0  0  0  0  0  0  0  0  0  0  0  0
   58.5406   -4.0939  -13.0951 C   0  0  0  0  0  0  0  0  0  0  0  0
   57.7632   -4.0942  -11.9429 C   0  0  0  0  0  0  0  0  0  0  0  0
   58.0711   -4.3708  -10.6795 N   0  0  0  0  0  0  0  0  0  0  0  0
   56.9817   -4.2355   -9.9067 N   0  0  0  0  0  0  0  0  0  0  0  0
   55.9516   -3.8658  -10.6796 C   0  0  0  0  0  0  0  0  0  0  0  0
   56.4346   -3.7664  -12.0125 C   0  0  0  0  0  0  0  0  0  0  0  0
   55.8602   -3.4352  -13.2197 C   0  0  0  0  0  0  0  0  0  0  0  0
   56.6041   -3.4252  -14.3822 C   0  0  0  0  0  0  0  0  0  0  0  0
   55.8880   -3.0049  -15.9315 Cl  0  0  0  0  0  0  0  0  0  0  0  0
   57.0133   -4.4084   -8.8811 H   0  0  0  0  0  0  0  0  0  0  0  0
 27 28  1  0  0  0
 28 29  2  0  0  0
 29 30  1  0  0  0
 30 31  2  0  0  0
 31 32  1  0  0  0
 32 33  1  0  0  0
 33 23  1  0  0  0
 23 24  1  0  0  0
 24 25  2  0  0  0
 24  1  1  0  0  0
  1  2  2  0  0  0
  2  3  1  0  0  0
  3  4  2  0  0  0
  4  5  1  0  0  0
  5  6  2  0  0  0
  4  7  1  0  0  0
  7  8  2  0  0  0
  8  9  1  0  0  0
  9 10  2  0  0  0
 10 13  1  0  0  0
 13 14  1  0  0  0
 14 15  1  0  0  0
 15 16  1  0  0  0
 16 17  1  0  0  0
 17 18  1  0  0  0
 18 19  1  0  0  0
 19 20  1  0  0  0
 19 21  1  0  0  0
 19 22  1  0  0  0
 10 11  1  0  0  0
 11 12  2  0  0  0
 33 34  2  0  0  0
 34 35  1  0  0  0
 35 36  2  0  0  0
 36 37  1  0  0  0
 36 28  1  0  0  0
 34 30  1  0  0  0
  6  1  1  0  0  0
 12  7  1  0  0  0
 22 16  1  0  0  0
 32 38  1  0  0  0
 23 26  1  0  0  0
M  END
> <minimizedAffinity>
-7.56844

> <CNNscore>
0.2364343554

> <CNNaffinity>
6.3718452454

> <CNN_VS>
1.5065231323

> <CNNaffinity_variance>
0.1282810867

$$$$
[H]c1c([H])c(-c2c([H])c([H])c(C(=O)N([H])c3c4c([H])c(Cl)c(C([H])([H])[H])c([H])c4nn3[H])c([H])c2[H])c([H])c([H])c1OC([H])([H])C([H])([H])N1C([H])([H])C([H])([H])C(F)(F)C1([H])[H]


 38 42  0  0  0  0  0  0  0  0999 V2000
   54.5676   -5.5515   -5.5744 C   0  0  0  0  0  0  0  0  0  0  0  0
   55.9312   -5.7821   -5.7452 C   0  0  0  0  0  0  0  0  0  0  0  0
   56.5332   -5.5370   -6.9564 C   0  0  0  0  0  0  0  0  0  0  0  0
   55.8254   -5.0596   -8.0390 C   0  0  0  0  0  0  0  0  0  0  0  0
   54.4742   -4.8353   -7.8564 C   0  0  0  0  0  0  0  0  0  0  0  0
   53.8320   -5.0659   -6.6654 C   0  0  0  0  0  0  0  0  0  0  0  0
   56.4991   -4.8136   -9.3005 C   0  0  0  0  0  0  0  0  0  0  0  0
   55.8726   -4.1919  -10.3523 C   0  0  0  0  0  0  0  0  0  0  0  0
   56.5230   -3.9639  -11.5461 C   0  0  0  0  0  0  0  0  0  0  0  0
   57.8140   -4.3406  -11.7441 C   0  0  0  0  0  0  0  0  0  0  0  0
   58.4541   -4.9778  -10.6652 C   0  0  0  0  0  0  0  0  0  0  0  0
   57.7979   -5.2005   -9.4805 C   0  0  0  0  0  0  0  0  0  0  0  0
   58.5456   -4.1663  -12.8656 O   0  0  0  0  0  0  0  0  0  0  0  0
   59.8361   -3.7738  -13.1120 C   0  0  0  0  0  0  0  0  0  0  0  0
   60.1982   -3.3523  -14.4866 C   0  0  0  0  0  0  0  0  0  0  0  0
   61.2918   -4.0744  -15.0739 N   0  0  0  0  0  0  0  0  0  0  0  0
   62.2513   -4.4205  -14.0497 C   0  0  0  0  0  0  0  0  0  0  0  0
   63.4867   -3.5977  -14.3424 C   0  0  0  0  0  0  0  0  0  0  0  0
   63.4464   -3.4432  -15.8265 C   0  0  0  0  0  0  0  0  0  0  0  0
   64.0606   -2.2662  -16.2462 F   0  0  0  0  0  0  0  0  0  0  0  0
   64.0420   -4.5500  -16.4023 F   0  0  0  0  0  0  0  0  0  0  0  0
   61.9630   -3.4111  -16.1283 C   0  0  0  0  0  0  0  0  0  0  0  0
   54.4422   -5.5214   -3.0434 N   0  0  0  0  0  0  0  0  0  0  0  0
   53.9148   -5.7539   -4.3052 C   0  0  0  0  0  0  0  0  0  0  0  0
   52.6947   -6.2073   -4.4198 O   0  0  0  0  0  0  0  0  0  0  0  0
   53.7639   -5.7473   -2.2272 H   0  0  0  0  0  0  0  0  0  0  0  0
   60.0327   -7.5302   -0.1250 C   0  0  0  0  0  0  0  0  0  0  0  0
   58.8554   -6.9305   -0.7987 C   0  0  0  0  0  0  0  0  0  0  0  0
   58.8834   -5.6135   -1.2301 C   0  0  0  0  0  0  0  0  0  0  0  0
   57.7586   -5.0911   -1.8574 C   0  0  0  0  0  0  0  0  0  0  0  0
   57.5182   -3.8839   -2.3598 N   0  0  0  0  0  0  0  0  0  0  0  0
   56.2776   -3.8439   -2.8715 N   0  0  0  0  0  0  0  0  0  0  0  0
   55.7043   -5.0426   -2.6987 C   0  0  0  0  0  0  0  0  0  0  0  0
   56.6493   -5.8745   -2.0395 C   0  0  0  0  0  0  0  0  0  0  0  0
   56.6392   -7.1812   -1.6044 C   0  0  0  0  0  0  0  0  0  0  0  0
   57.7395   -7.7306   -0.9779 C   0  0  0  0  0  0  0  0  0  0  0  0
   57.7447   -9.3963   -0.4163 Cl  0  0  0  0  0  0  0  0  0  0  0  0
   55.8955   -2.9831   -3.3141 H   0  0  0  0  0  0  0  0  0  0  0  0
 27 28  1  0  0  0
 28 29  2  0  0  0
 29 30  1  0  0  0
 30 31  2  0  0  0
 31 32  1  0  0  0
 32 33  1  0  0  0
 33 23  1  0  0  0
 23 24  1  0  0  0
 24 25  2  0  0  0
 24  1  1  0  0  0
  1  2  2  0  0  0
  2  3  1  0  0  0
  3  4  2  0  0  0
  4  5  1  0  0  0
  5  6  2  0  0  0
  4  7  1  0  0  0
  7  8  2  0  0  0
  8  9  1  0  0  0
  9 10  2  0  0  0
 10 13  1  0  0  0
 13 14  1  0  0  0
 14 15  1  0  0  0
 15 16  1  0  0  0
 16 17  1  0  0  0
 17 18  1  0  0  0
 18 19  1  0  0  0
 19 20  1  0  0  0
 19 21  1  0  0  0
 19 22  1  0  0  0
 10 11  1  0  0  0
 11 12  2  0  0  0
 33 34  2  0  0  0
 34 35  1  0  0  0
 35 36  2  0  0  0
 36 37  1  0  0  0
 36 28  1  0  0  0
 34 30  1  0  0  0
  6  1  1  0  0  0
 12  7  1  0  0  0
 22 16  1  0  0  0
 32 38  1  0  0  0
 23 26  1  0  0  0
M  END
> <minimizedAffinity>
-8.89559

> <CNNscore>
0.1797764599

> <CNNaffinity>
6.0638489723

> <CNN_VS>
1.0901372433

> <CNNaffinity_variance>
0.0605431572

$$$$
[H]c1c([H])c(-c2c([H])c([H])c(C(=O)N([H])c3c4c([H])c(Cl)c(C([H])([H])[H])c([H])c4nn3[H])c([H])c2[H])c([H])c([H])c1OC([H])([H])C([H])([H])N1C([H])([H])C([H])([H])C(F)(F)C1([H])[H]


 38 42  0  0  0  0  0  0  0  0999 V2000
   56.1919   -4.5396   -9.5696 C   0  0  0  0  0  0  0  0  0  0  0  0
   56.7474   -4.7625   -8.3113 C   0  0  0  0  0  0  0  0  0  0  0  0
   58.0138   -5.2833   -8.1908 C   0  0  0  0  0  0  0  0  0  0  0  0
   58.7785   -5.6031   -9.2927 C   0  0  0  0  0  0  0  0  0  0  0  0
   58.2159   -5.3773  -10.5344 C   0  0  0  0  0  0  0  0  0  0  0  0
   56.9558   -4.8594  -10.7016 C   0  0  0  0  0  0  0  0  0  0  0  0
   60.1116   -6.1506   -9.1219 C   0  0  0  0  0  0  0  0  0  0  0  0
   60.9807   -6.2946  -10.1750 C   0  0  0  0  0  0  0  0  0  0  0  0
   62.2447   -6.8163  -10.0004 C   0  0  0  0  0  0  0  0  0  0  0  0
   62.6956   -7.2137   -8.7812 C   0  0  0  0  0  0  0  0  0  0  0  0
   61.8033   -7.0656   -7.7034 C   0  0  0  0  0  0  0  0  0  0  0  0
   60.5467   -6.5452   -7.8875 C   0  0  0  0  0  0  0  0  0  0  0  0
   63.9089   -7.7336   -8.4966 O   0  0  0  0  0  0  0  0  0  0  0  0
   64.4919   -8.9592   -8.6921 C   0  0  0  0  0  0  0  0  0  0  0  0
   64.5087   -9.9235   -7.5661 C   0  0  0  0  0  0  0  0  0  0  0  0
   63.6433  -11.0582   -7.7265 N   0  0  0  0  0  0  0  0  0  0  0  0
   62.8248  -10.8821   -8.9049 C   0  0  0  0  0  0  0  0  0  0  0  0
   61.4099  -10.6924   -8.4037 C   0  0  0  0  0  0  0  0  0  0  0  0
   61.3895  -11.4864   -7.1400 C   0  0  0  0  0  0  0  0  0  0  0  0
   60.4758  -10.9799   -6.2194 F   0  0  0  0  0  0  0  0  0  0  0  0
   61.1072  -12.8037   -7.4504 F   0  0  0  0  0  0  0  0  0  0  0  0
   62.8056  -11.3458   -6.6230 C   0  0  0  0  0  0  0  0  0  0  0  0
   53.7703   -4.1514   -8.9309 N   0  0  0  0  0  0  0  0  0  0  0  0
   54.8855   -3.9520   -9.7315 C   0  0  0  0  0  0  0  0  0  0  0  0
   54.8039   -3.1533  -10.7623 O   0  0  0  0  0  0  0  0  0  0  0  0
   52.8898   -3.6016   -9.2466 H   0  0  0  0  0  0  0  0  0  0  0  0
   49.7653   -5.0043   -3.7311 C   0  0  0  0  0  0  0  0  0  0  0  0
   50.7556   -4.9391   -4.8331 C   0  0  0  0  0  0  0  0  0  0  0  0
   51.8387   -5.8036   -4.8615 C   0  0  0  0  0  0  0  0  0  0  0  0
   52.7428   -5.7089   -5.9129 C   0  0  0  0  0  0  0  0  0  0  0  0
   53.8467   -6.3990   -6.1827 N   0  0  0  0  0  0  0  0  0  0  0  0
   54.3980   -5.9470   -7.3203 N   0  0  0  0  0  0  0  0  0  0  0  0
   53.6411   -4.9490   -7.7959 C   0  0  0  0  0  0  0  0  0  0  0  0
   52.5548   -4.7736   -6.8964 C   0  0  0  0  0  0  0  0  0  0  0  0
   51.4728   -3.9226   -6.8520 C   0  0  0  0  0  0  0  0  0  0  0  0
   50.5566   -3.9905   -5.8220 C   0  0  0  0  0  0  0  0  0  0  0  0
   49.1697   -2.9128   -5.7492 Cl  0  0  0  0  0  0  0  0  0  0  0  0
   55.2732   -6.3577   -7.7052 H   0  0  0  0  0  0  0  0  0  0  0  0
 27 28  1  0  0  0
 28 29  2  0  0  0
 29 30  1  0  0  0
 30 31  2  0  0  0
 31 32  1  0  0  0
 32 33  1  0  0  0
 33 23  1  0  0  0
 23 24  1  0  0  0
 24 25  2  0  0  0
 24  1  1  0  0  0
  1  2  2  0  0  0
  2  3  1  0  0  0
  3  4  2  0  0  0
  4  5  1  0  0  0
  5  6  2  0  0  0
  4  7  1  0  0  0
  7  8  2  0  0  0
  8  9  1  0  0  0
  9 10  2  0  0  0
 10 13  1  0  0  0
 13 14  1  0  0  0
 14 15  1  0  0  0
 15 16  1  0  0  0
 16 17  1  0  0  0
 17 18  1  0  0  0
 18 19  1  0  0  0
 19 20  1  0  0  0
 19 21  1  0  0  0
 19 22  1  0  0  0
 10 11  1  0  0  0
 11 12  2  0  0  0
 33 34  2  0  0  0
 34 35  1  0  0  0
 35 36  2  0  0  0
 36 37  1  0  0  0
 36 28  1  0  0  0
 34 30  1  0  0  0
  6  1  1  0  0  0
 12  7  1  0  0  0
 22 16  1  0  0  0
 32 38  1  0  0  0
 23 26  1  0  0  0
M  END
> <minimizedAffinity>
-8.61872

> <CNNscore>
0.1606768519

> <CNNaffinity>
6.3976373672

> <CNN_VS>
1.0279521942

> <CNNaffinity_variance>
0.0598189607

$$$$
[H]c1c([H])c([H])c2c(c1[H])c1c3c(c4c5c([H])c([H])c([H])c([H])c5n5c4c1n2[C@]1([H])O[C@]5(C([H])([H])[H])[C@@]([H])(OC([H])([H])[H])[C@@]([H])(N([H])C([H])([H])[H])C1([H])[H])C([H])([H])N([H])C3=O


 37 44  0  0  0  0  0  0  0  0999 V2000
   56.4589   -7.3658   -2.8702 C   0  0  0  0  0  0  0  0  0  0  0  0
   57.1273   -6.7062   -4.1244 C   0  0  0  0  0  0  0  0  0  0  0  0
   56.0632   -6.0619   -4.7016 C   0  0  0  0  0  0  0  0  0  0  0  0
   55.6288   -5.1794   -3.7227 O   0  0  0  0  0  0  0  0  0  0  0  0
   54.4760   -5.8005   -3.1399 C   0  0  0  0  0  0  0  0  0  0  0  0
   54.3205   -4.9109   -1.8563 C   0  0  0  0  0  0  0  0  0  0  0  0
   54.9288   -7.1317   -2.8140 C   0  0  0  0  0  0  0  0  0  0  0  0
   53.3845   -5.5024   -4.0297 N   0  0  0  0  0  0  0  0  0  0  0  0
   52.0890   -5.3679   -3.6629 C   0  0  0  0  0  0  0  0  0  0  0  0
   51.3880   -5.5841   -2.4833 C   0  0  0  0  0  0  0  0  0  0  0  0
   50.0169   -5.3601   -2.4000 C   0  0  0  0  0  0  0  0  0  0  0  0
   49.3059   -4.9143   -3.4922 C   0  0  0  0  0  0  0  0  0  0  0  0
   49.9706   -4.6902   -4.6787 C   0  0  0  0  0  0  0  0  0  0  0  0
   51.3172   -4.9207   -4.7236 C   0  0  0  0  0  0  0  0  0  0  0  0
   52.1685   -4.7812   -5.7769 C   0  0  0  0  0  0  0  0  0  0  0  0
   52.0785   -4.3473   -7.1066 C   0  0  0  0  0  0  0  0  0  0  0  0
   50.8778   -3.8936   -7.8302 C   0  0  0  0  0  0  0  0  0  0  0  0
   51.3251   -3.5852   -9.1640 N   0  0  0  0  0  0  0  0  0  0  0  0
   52.7483   -3.8078   -9.2603 C   0  0  0  0  0  0  0  0  0  0  0  0
   53.3320   -3.5840  -10.3303 O   0  0  0  0  0  0  0  0  0  0  0  0
   53.1658   -4.2798   -7.9595 C   0  0  0  0  0  0  0  0  0  0  0  0
   54.4274   -4.6547   -7.5171 C   0  0  0  0  0  0  0  0  0  0  0  0
   55.6785   -4.7729   -8.0495 C   0  0  0  0  0  0  0  0  0  0  0  0
   56.2058   -4.5014   -9.2706 C   0  0  0  0  0  0  0  0  0  0  0  0
   57.5758   -4.7539   -9.4671 C   0  0  0  0  0  0  0  0  0  0  0  0
   58.3592   -5.2599   -8.4559 C   0  0  0  0  0  0  0  0  0  0  0  0
   57.8128   -5.5365   -7.2048 C   0  0  0  0  0  0  0  0  0  0  0  0
   56.4734   -5.2811   -7.0389 C   0  0  0  0  0  0  0  0  0  0  0  0
   55.7684   -5.4702   -5.9361 N   0  0  0  0  0  0  0  0  0  0  0  0
   54.4969   -5.0768   -6.2155 C   0  0  0  0  0  0  0  0  0  0  0  0
   53.3885   -5.1350   -5.3511 C   0  0  0  0  0  0  0  0  0  0  0  0
   50.6704   -3.2538   -9.9083 H   0  0  0  0  0  0  0  0  0  0  0  0
   57.6865   -9.3555   -2.2552 C   0  0  0  0  0  0  0  0  0  0  0  0
   56.6187   -8.7980   -3.0278 N   0  0  0  0  0  0  0  0  0  0  0  0
   56.5309   -9.1374   -3.9887 H   0  0  0  0  0  0  0  0  0  0  0  0
   54.2018   -8.2316   -3.2163 O   0  0  0  0  0  0  0  0  0  0  0  0
   53.2282   -8.6730   -2.3674 C   0  0  0  0  0  0  0  0  0  0  0  0
 33 34  1  0  0  0
 34  1  1  0  0  0
  1  2  1  0  0  0
  2  3  1  0  0  0
  3  4  1  0  0  0
  4  5  1  0  0  0
  5  6  1  0  0  0
  5  7  1  0  0  0
  7 36  1  0  0  0
 36 37  1  0  0  0
  5  8  1  0  0  0
  8  9  1  0  0  0
  9 10  2  0  0  0
 10 11  1  0  0  0
 11 12  2  0  0  0
 12 13  1  0  0  0
 13 14  2  0  0  0
 14 15  1  0  0  0
 15 16  2  0  0  0
 16 17  1  0  0  0
 17 18  1  0  0  0
 18 19  1  0  0  0
 19 20  2  0  0  0
 19 21  1  0  0  0
 21 22  2  0  0  0
 22 23  1  0  0  0
 23 24  2  0  0  0
 24 25  1  0  0  0
 25 26  2  0  0  0
 26 27  1  0  0  0
 27 28  2  0  0  0
 28 29  1  0  0  0
 29 30  1  0  0  0
 30 31  2  0  0  0
  7  1  1  0  0  0
 31  8  1  0  0  0
 29  3  1  0  0  0
 14  9  1  0  0  0
 31 15  1  0  0  0
 21 16  1  0  0  0
 30 22  1  0  0  0
 28 23  1  0  0  0
 34 35  1  0  0  0
 18 32  1  0  0  0
M  END
> <minimizedAffinity>
-8.63074

> <CNNscore>
0.4510349333

> <CNNaffinity>
6.9233078957

> <CNN_VS>
3.1226537228

> <CNNaffinity_variance>
0.2780687213

$$$$
[H]c1c([H])c([H])c2c(c1[H])c1c3c(c4c5c([H])c([H])c([H])c([H])c5n5c4c1n2[C@]1([H])O[C@]5(C([H])([H])[H])[C@@]([H])(OC([H])([H])[H])[C@@]([H])(N([H])C([H])([H])[H])C1([H])[H])C([H])([H])N([H])C3=O


 37 44  0  0  0  0  0  0  0  0999 V2000
   54.4014   -6.8428   -2.0709 C   0  0  0  0  0  0  0  0  0  0  0  0
   52.8689   -6.5777   -2.2608 C   0  0  0  0  0  0  0  0  0  0  0  0
   52.8293   -6.0665   -3.5327 C   0  0  0  0  0  0  0  0  0  0  0  0
   53.3633   -7.0759   -4.3212 O   0  0  0  0  0  0  0  0  0  0  0  0
   54.7129   -6.6731   -4.5866 C   0  0  0  0  0  0  0  0  0  0  0  0
   55.2840   -8.0240   -5.1455 C   0  0  0  0  0  0  0  0  0  0  0  0
   55.2457   -6.3693   -3.2801 C   0  0  0  0  0  0  0  0  0  0  0  0
   54.6297   -5.7345   -5.6748 N   0  0  0  0  0  0  0  0  0  0  0  0
   55.5881   -5.5296   -6.6077 C   0  0  0  0  0  0  0  0  0  0  0  0
   56.8958   -5.9701   -6.7670 C   0  0  0  0  0  0  0  0  0  0  0  0
   57.6686   -5.5775   -7.8560 C   0  0  0  0  0  0  0  0  0  0  0  0
   57.1580   -4.7332   -8.8172 C   0  0  0  0  0  0  0  0  0  0  0  0
   55.8637   -4.2768   -8.6894 C   0  0  0  0  0  0  0  0  0  0  0  0
   55.1344   -4.6834   -7.6071 C   0  0  0  0  0  0  0  0  0  0  0  0
   53.8562   -4.3553   -7.2721 C   0  0  0  0  0  0  0  0  0  0  0  0
   52.8217   -3.5935   -7.8323 C   0  0  0  0  0  0  0  0  0  0  0  0
   52.8477   -2.8146   -9.0827 C   0  0  0  0  0  0  0  0  0  0  0  0
   51.5461   -2.2066   -9.1852 N   0  0  0  0  0  0  0  0  0  0  0  0
   50.7331   -2.6125   -8.0634 C   0  0  0  0  0  0  0  0  0  0  0  0
   49.5657   -2.2062   -7.9744 O   0  0  0  0  0  0  0  0  0  0  0  0
   51.5702   -3.4700   -7.2553 C   0  0  0  0  0  0  0  0  0  0  0  0
   51.2838   -4.1143   -6.0592 C   0  0  0  0  0  0  0  0  0  0  0  0
   50.2327   -4.1897   -5.1919 C   0  0  0  0  0  0  0  0  0  0  0  0
   48.9759   -3.6766   -5.1971 C   0  0  0  0  0  0  0  0  0  0  0  0
   48.1398   -3.9712   -4.1047 C   0  0  0  0  0  0  0  0  0  0  0  0
   48.5789   -4.7543   -3.0623 C   0  0  0  0  0  0  0  0  0  0  0  0
   49.8695   -5.2783   -3.0624 C   0  0  0  0  0  0  0  0  0  0  0  0
   50.6655   -4.9760   -4.1402 C   0  0  0  0  0  0  0  0  0  0  0  0
   51.9119   -5.3741   -4.3325 N   0  0  0  0  0  0  0  0  0  0  0  0
   52.3063   -4.8537   -5.5255 C   0  0  0  0  0  0  0  0  0  0  0  0
   53.5741   -4.9817   -6.1219 C   0  0  0  0  0  0  0  0  0  0  0  0
   51.2873   -1.5750   -9.9767 H   0  0  0  0  0  0  0  0  0  0  0  0
   53.7806   -5.6909   -0.0381 C   0  0  0  0  0  0  0  0  0  0  0  0
   54.8256   -6.0108   -0.9620 N   0  0  0  0  0  0  0  0  0  0  0  0
   55.4555   -5.2457   -1.2148 H   0  0  0  0  0  0  0  0  0  0  0  0
   55.8862   -5.1702   -3.0516 O   0  0  0  0  0  0  0  0  0  0  0  0
   57.2354   -5.2188   -2.8504 C   0  0  0  0  0  0  0  0  0  0  0  0
 33 34  1  0  0  0
 34  1  1  0  0  0
  1  2  1  0  0  0
  2  3  1  0  0  0
  3  4  1  0  0  0
  4  5  1  0  0  0
  5  6  1  0  0  0
  5  7  1  0  0  0
  7 36  1  0  0  0
 36 37  1  0  0  0
  5  8  1  0  0  0
  8  9  1  0  0  0
  9 10  2  0  0  0
 10 11  1  0  0  0
 11 12  2  0  0  0
 12 13  1  0  0  0
 13 14  2  0  0  0
 14 15  1  0  0  0
 15 16  2  0  0  0
 16 17  1  0  0  0
 17 18  1  0  0  0
 18 19  1  0  0  0
 19 20  2  0  0  0
 19 21  1  0  0  0
 21 22  2  0  0  0
 22 23  1  0  0  0
 23 24  2  0  0  0
 24 25  1  0  0  0
 25 26  2  0  0  0
 26 27  1  0  0  0
 27 28  2  0  0  0
 28 29  1  0  0  0
 29 30  1  0  0  0
 30 31  2  0  0  0
  7  1  1  0  0  0
 31  8  1  0  0  0
 29  3  1  0  0  0
 14  9  1  0  0  0
 31 15  1  0  0  0
 21 16  1  0  0  0
 30 22  1  0  0  0
 28 23  1  0  0  0
 34 35  1  0  0  0
 18 32  1  0  0  0
M  END
> <minimizedAffinity>
-9.61379

> <CNNscore>
0.4167263806

> <CNNaffinity>
6.9349708557

> <CNN_VS>
2.8899853230

> <CNNaffinity_variance>
0.0779858530

$$$$
[H]c1c([H])c([H])c2c(c1[H])c1c3c(c4c5c([H])c([H])c([H])c([H])c5n5c4c1n2[C@]1([H])O[C@]5(C([H])([H])[H])[C@@]([H])(OC([H])([H])[H])[C@@]([H])(N([H])C([H])([H])[H])C1([H])[H])C([H])([H])N([H])C3=O


 37 44  0  0  0  0  0  0  0  0999 V2000
   64.1277   -4.7695   -7.9712 C   0  0  0  0  0  0  0  0  0  0  0  0
   64.2916   -5.1241   -9.4885 C   0  0  0  0  0  0  0  0  0  0  0  0
   64.0858   -6.4799   -9.4823 C   0  0  0  0  0  0  0  0  0  0  0  0
   62.8048   -6.6268   -8.9695 O   0  0  0  0  0  0  0  0  0  0  0  0
   62.9882   -7.0098   -7.6006 C   0  0  0  0  0  0  0  0  0  0  0  0
   61.5291   -6.7843   -7.0681 C   0  0  0  0  0  0  0  0  0  0  0  0
   63.9028   -6.0196   -7.0846 C   0  0  0  0  0  0  0  0  0  0  0  0
   63.2447   -8.4259   -7.6261 N   0  0  0  0  0  0  0  0  0  0  0  0
   62.9267   -9.2977   -6.6413 C   0  0  0  0  0  0  0  0  0  0  0  0
   62.4390   -9.1630   -5.3477 C   0  0  0  0  0  0  0  0  0  0  0  0
   62.2070  -10.2712   -4.5382 C   0  0  0  0  0  0  0  0  0  0  0  0
   62.4560  -11.5459   -4.9968 C   0  0  0  0  0  0  0  0  0  0  0  0
   62.9411  -11.7153   -6.2758 C   0  0  0  0  0  0  0  0  0  0  0  0
   63.1566  -10.6042   -7.0423 C   0  0  0  0  0  0  0  0  0  0  0  0
   63.6363  -10.5295   -8.3143 C   0  0  0  0  0  0  0  0  0  0  0  0
   64.0291  -11.4366   -9.3080 C   0  0  0  0  0  0  0  0  0  0  0  0
   64.0633  -12.9074   -9.2268 C   0  0  0  0  0  0  0  0  0  0  0  0
   64.5620  -13.3523  -10.5027 N   0  0  0  0  0  0  0  0  0  0  0  0
   64.8000  -12.2105  -11.3536 C   0  0  0  0  0  0  0  0  0  0  0  0
   65.2197  -12.3833  -12.5068 O   0  0  0  0  0  0  0  0  0  0  0  0
   64.4551  -11.0488  -10.5659 C   0  0  0  0  0  0  0  0  0  0  0  0
   64.5145   -9.7027  -10.9011 C   0  0  0  0  0  0  0  0  0  0  0  0
   64.9127   -8.9567  -11.9724 C   0  0  0  0  0  0  0  0  0  0  0  0
   65.3783   -9.2679  -13.2089 C   0  0  0  0  0  0  0  0  0  0  0  0
   65.6976   -8.2089  -14.0782 C   0  0  0  0  0  0  0  0  0  0  0  0
   65.5441   -6.8979  -13.6904 C   0  0  0  0  0  0  0  0  0  0  0  0
   65.0659   -6.5844  -12.4203 C   0  0  0  0  0  0  0  0  0  0  0  0
   64.7614   -7.6363  -11.5912 C   0  0  0  0  0  0  0  0  0  0  0  0
   64.2947   -7.5537  -10.3565 N   0  0  0  0  0  0  0  0  0  0  0  0
   64.1279   -8.8303   -9.9181 C   0  0  0  0  0  0  0  0  0  0  0  0
   63.6878   -9.2319   -8.6436 C   0  0  0  0  0  0  0  0  0  0  0  0
   64.7088  -14.3637  -10.7212 H   0  0  0  0  0  0  0  0  0  0  0  0
   65.2992   -3.3076   -6.4433 C   0  0  0  0  0  0  0  0  0  0  0  0
   65.3987   -4.2215   -7.5401 N   0  0  0  0  0  0  0  0  0  0  0  0
   66.0298   -3.9509   -8.2981 H   0  0  0  0  0  0  0  0  0  0  0  0
   65.0378   -6.4078   -6.4054 O   0  0  0  0  0  0  0  0  0  0  0  0
   65.7538   -7.4406   -6.9381 C   0  0  0  0  0  0  0  0  0  0  0  0
 33 34  1  0  0  0
 34  1  1  0  0  0
  1  2  1  0  0  0
  2  3  1  0  0  0
  3  4  1  0  0  0
  4  5  1  0  0  0
  5  6  1  0  0  0
  5  7  1  0  0  0
  7 36  1  0  0  0
 36 37  1  0  0  0
  5  8  1  0  0  0
  8  9  1  0  0  0
  9 10  2  0  0  0
 10 11  1  0  0  0
 11 12  2  0  0  0
 12 13  1  0  0  0
 13 14  2  0  0  0
 14 15  1  0  0  0
 15 16  2  0  0  0
 16 17  1  0  0  0
 17 18  1  0  0  0
 18 19  1  0  0  0
 19 20  2  0  0  0
 19 21  1  0  0  0
 21 22  2  0  0  0
 22 23  1  0  0  0
 23 24  2  0  0  0
 24 25  1  0  0  0
 25 26  2  0  0  0
 26 27  1  0  0  0
 27 28  2  0  0  0
 28 29  1  0  0  0
 29 30  1  0  0  0
 30 31  2  0  0  0
  7  1  1  0  0  0
 31  8  1  0  0  0
 29  3  1  0  0  0
 14  9  1  0  0  0
 31 15  1  0  0  0
 21 16  1  0  0  0
 30 22  1  0  0  0
 28 23  1  0  0  0
 34 35  1  0  0  0
 18 32  1  0  0  0
M  END
> <minimizedAffinity>
-0.74497

> <CNNscore>
0.4154978693

> <CNNaffinity>
4.9743237495

> <CNN_VS>
2.0668208599

> <CNNaffinity_variance>
0.3849224448

$$$$
[H]c1c([H])c([H])c2c(c1[H])c1c3c(c4c5c([H])c([H])c([H])c([H])c5n5c4c1n2[C@]1([H])O[C@]5(C([H])([H])[H])[C@@]([H])(OC([H])([H])[H])[C@@]([H])(N([H])C([H])([H])[H])C1([H])[H])C([H])([H])N([H])C3=O


 37 44  0  0  0  0  0  0  0  0999 V2000
   64.8052   -8.4370  -11.0240 C   0  0  0  0  0  0  0  0  0  0  0  0
   65.2767   -7.5537  -12.2291 C   0  0  0  0  0  0  0  0  0  0  0  0
   64.2150   -6.6992  -12.3814 C   0  0  0  0  0  0  0  0  0  0  0  0
   64.1267   -6.0459  -11.1603 O   0  0  0  0  0  0  0  0  0  0  0  0
   63.0492   -6.6876  -10.4664 C   0  0  0  0  0  0  0  0  0  0  0  0
   63.2966   -6.1253   -9.0221 C   0  0  0  0  0  0  0  0  0  0  0  0
   63.3702   -8.0921  -10.5537 C   0  0  0  0  0  0  0  0  0  0  0  0
   61.8460   -6.0897  -10.9827 N   0  0  0  0  0  0  0  0  0  0  0  0
   60.6901   -5.9365  -10.2961 C   0  0  0  0  0  0  0  0  0  0  0  0
   60.2332   -6.3705   -9.0582 C   0  0  0  0  0  0  0  0  0  0  0  0
   58.9564   -6.0556   -8.6023 C   0  0  0  0  0  0  0  0  0  0  0  0
   58.0987   -5.2988   -9.3697 C   0  0  0  0  0  0  0  0  0  0  0  0
   58.5202   -4.8524  -10.6038 C   0  0  0  0  0  0  0  0  0  0  0  0
   59.7805   -5.1808  -11.0187 C   0  0  0  0  0  0  0  0  0  0  0  0
   60.3989   -4.8644  -12.1896 C   0  0  0  0  0  0  0  0  0  0  0  0
   60.0895   -4.1153  -13.3331 C   0  0  0  0  0  0  0  0  0  0  0  0
   58.8377   -3.3979  -13.6324 C   0  0  0  0  0  0  0  0  0  0  0  0
   59.0294   -2.8155  -14.9356 N   0  0  0  0  0  0  0  0  0  0  0  0
   60.3541   -3.1303  -15.4158 C   0  0  0  0  0  0  0  0  0  0  0  0
   60.7219   -2.7054  -16.5203 O   0  0  0  0  0  0  0  0  0  0  0  0
   60.9687   -3.9376  -14.3865 C   0  0  0  0  0  0  0  0  0  0  0  0
   62.2304   -4.5161  -14.3508 C   0  0  0  0  0  0  0  0  0  0  0  0
   63.3103   -4.6095  -15.1802 C   0  0  0  0  0  0  0  0  0  0  0  0
   63.5982   -4.0971  -16.4038 C   0  0  0  0  0  0  0  0  0  0  0  0
   64.8458   -4.4119  -16.9727 C   0  0  0  0  0  0  0  0  0  0  0  0
   65.7480   -5.2136  -16.3124 C   0  0  0  0  0  0  0  0  0  0  0  0
   65.4473   -5.7366  -15.0569 C   0  0  0  0  0  0  0  0  0  0  0  0
   64.2231   -5.4142  -14.5237 C   0  0  0  0  0  0  0  0  0  0  0  0
   63.7498   -5.8030  -13.3516 N   0  0  0  0  0  0  0  0  0  0  0  0
   62.5157   -5.2452  -13.2266 C   0  0  0  0  0  0  0  0  0  0  0  0
   61.6198   -5.4150  -12.1552 C   0  0  0  0  0  0  0  0  0  0  0  0
   58.2842   -2.2584  -15.4117 H   0  0  0  0  0  0  0  0  0  0  0  0
   65.7297  -10.1260  -12.4858 C   0  0  0  0  0  0  0  0  0  0  0  0
   64.7258   -9.7967  -11.5205 N   0  0  0  0  0  0  0  0  0  0  0  0
   63.7788  -10.1261  -11.7228 H   0  0  0  0  0  0  0  0  0  0  0  0
   62.4277   -8.9948  -10.9975 O   0  0  0  0  0  0  0  0  0  0  0  0
   61.6418   -9.5839  -10.0496 C   0  0  0  0  0  0  0  0  0  0  0  0
 33 34  1  0  0  0
 34  1  1  0  0  0
  1  2  1  0  0  0
  2  3  1  0  0  0
  3  4  1  0  0  0
  4  5  1  0  0  0
  5  6  1  0  0  0
  5  7  1  0  0  0
  7 36  1  0  0  0
 36 37  1  0  0  0
  5  8  1  0  0  0
  8  9  1  0  0  0
  9 10  2  0  0  0
 10 11  1  0  0  0
 11 12  2  0  0  0
 12 13  1  0  0  0
 13 14  2  0  0  0
 14 15  1  0  0  0
 15 16  2  0  0  0
 16 17  1  0  0  0
 17 18  1  0  0  0
 18 19  1  0  0  0
 19 20  2  0  0  0
 19 21  1  0  0  0
 21 22  2  0  0  0
 22 23  1  0  0  0
 23 24  2  0  0  0
 24 25  1  0  0  0
 25 26  2  0  0  0
 26 27  1  0  0  0
 27 28  2  0  0  0
 28 29  1  0  0  0
 29 30  1  0  0  0
 30 31  2  0  0  0
  7  1  1  0  0  0
 31  8  1  0  0  0
 29  3  1  0  0  0
 14  9  1  0  0  0
 31 15  1  0  0  0
 21 16  1  0  0  0
 30 22  1  0  0  0
 28 23  1  0  0  0
 34 35  1  0  0  0
 18 32  1  0  0  0
M  END
> <minimizedAffinity>
-1.40502

> <CNNscore>
0.4112586379

> <CNNaffinity>
4.8432092667

> <CNN_VS>
1.9918116331

> <CNNaffinity_variance>
0.0984996930

$$$$
[H]c1c([H])c([H])c2c(c1[H])c1c3c(c4c5c([H])c([H])c([H])c([H])c5n5c4c1n2[C@]1([H])O[C@]5(C([H])([H])[H])[C@@]([H])(OC([H])([H])[H])[C@@]([H])(N([H])C([H])([H])[H])C1([H])[H])C([H])([H])N([H])C3=O


 37 44  0  0  0  0  0  0  0  0999 V2000
   58.9360   -3.8656  -12.9549 C   0  0  0  0  0  0  0  0  0  0  0  0
   59.8396   -4.8683  -12.1593 C   0  0  0  0  0  0  0  0  0  0  0  0
   59.0580   -5.1417  -11.0661 C   0  0  0  0  0  0  0  0  0  0  0  0
   57.8979   -5.6805  -11.6041 O   0  0  0  0  0  0  0  0  0  0  0  0
   56.9389   -4.6157  -11.5751 C   0  0  0  0  0  0  0  0  0  0  0  0
   55.8408   -5.2271  -12.5152 C   0  0  0  0  0  0  0  0  0  0  0  0
   57.6268   -3.5143  -12.2053 C   0  0  0  0  0  0  0  0  0  0  0  0
   56.4224   -4.5967  -10.2318 N   0  0  0  0  0  0  0  0  0  0  0  0
   55.1776   -4.2026   -9.8765 C   0  0  0  0  0  0  0  0  0  0  0  0
   54.1201   -3.6060  -10.5512 C   0  0  0  0  0  0  0  0  0  0  0  0
   52.9250   -3.3005   -9.9066 C   0  0  0  0  0  0  0  0  0  0  0  0
   52.7515   -3.5813   -8.5693 C   0  0  0  0  0  0  0  0  0  0  0  0
   53.7813   -4.1727   -7.8695 C   0  0  0  0  0  0  0  0  0  0  0  0
   54.9403   -4.4587   -8.5353 C   0  0  0  0  0  0  0  0  0  0  0  0
   56.0804   -5.0246   -8.0519 C   0  0  0  0  0  0  0  0  0  0  0  0
   56.5148   -5.5501   -6.8274 C   0  0  0  0  0  0  0  0  0  0  0  0
   55.7714   -5.6149   -5.5568 C   0  0  0  0  0  0  0  0  0  0  0  0
   56.6740   -6.2220   -4.6127 N   0  0  0  0  0  0  0  0  0  0  0  0
   57.9156   -6.5495   -5.2726 C   0  0  0  0  0  0  0  0  0  0  0  0
   58.8238   -7.0970   -4.6315 O   0  0  0  0  0  0  0  0  0  0  0  0
   57.7655   -6.1121   -6.6421 C   0  0  0  0  0  0  0  0  0  0  0  0
   58.6677   -6.1757   -7.6954 C   0  0  0  0  0  0  0  0  0  0  0  0
   59.9548   -6.5883   -7.8847 C   0  0  0  0  0  0  0  0  0  0  0  0
   60.8770   -7.1772   -7.0813 C   0  0  0  0  0  0  0  0  0  0  0  0
   62.1386   -7.4695   -7.6310 C   0  0  0  0  0  0  0  0  0  0  0  0
   62.4319   -7.1693   -8.9411 C   0  0  0  0  0  0  0  0  0  0  0  0
   61.4816   -6.5651   -9.7610 C   0  0  0  0  0  0  0  0  0  0  0  0
   60.2581   -6.2904   -9.2004 C   0  0  0  0  0  0  0  0  0  0  0  0
   59.2258   -5.7264   -9.8049 N   0  0  0  0  0  0  0  0  0  0  0  0
   58.2271   -5.6569   -8.8844 C   0  0  0  0  0  0  0  0  0  0  0  0
   56.9507   -5.0943   -9.0680 C   0  0  0  0  0  0  0  0  0  0  0  0
   56.4126   -6.3765   -3.6127 H   0  0  0  0  0  0  0  0  0  0  0  0
   60.7339   -2.6284  -13.9946 C   0  0  0  0  0  0  0  0  0  0  0  0
   59.6757   -2.6211  -13.0312 N   0  0  0  0  0  0  0  0  0  0  0  0
   59.8897   -2.1918  -12.1279 H   0  0  0  0  0  0  0  0  0  0  0  0
   57.6732   -2.2807  -11.5919 O   0  0  0  0  0  0  0  0  0  0  0  0
   56.6388   -1.9656  -10.7589 C   0  0  0  0  0  0  0  0  0  0  0  0
 33 34  1  0  0  0
 34  1  1  0  0  0
  1  2  1  0  0  0
  2  3  1  0  0  0
  3  4  1  0  0  0
  4  5  1  0  0  0
  5  6  1  0  0  0
  5  7  1  0  0  0
  7 36  1  0  0  0
 36 37  1  0  0  0
  5  8  1  0  0  0
  8  9  1  0  0  0
  9 10  2  0  0  0
 10 11  1  0  0  0
 11 12  2  0  0  0
 12 13  1  0  0  0
 13 14  2  0  0  0
 14 15  1  0  0  0
 15 16  2  0  0  0
 16 17  1  0  0  0
 17 18  1  0  0  0
 18 19  1  0  0  0
 19 20  2  0  0  0
 19 21  1  0  0  0
 21 22  2  0  0  0
 22 23  1  0  0  0
 23 24  2  0  0  0
 24 25  1  0  0  0
 25 26  2  0  0  0
 26 27  1  0  0  0
 27 28  2  0  0  0
 28 29  1  0  0  0
 29 30  1  0  0  0
 30 31  2  0  0  0
  7  1  1  0  0  0
 31  8  1  0  0  0
 29  3  1  0  0  0
 14  9  1  0  0  0
 31 15  1  0  0  0
 21 16  1  0  0  0
 30 22  1  0  0  0
 28 23  1  0  0  0
 34 35  1  0  0  0
 18 32  1  0  0  0
M  END
> <minimizedAffinity>
4.62143

> <CNNscore>
0.3848498464

> <CNNaffinity>
6.0498819351

> <CNN_VS>
2.3282961845

> <CNNaffinity_variance>
0.2301580459

$$$$
[H]c1c([H])c([H])c2c(c1[H])c1c3c(c4c5c([H])c([H])c([H])c([H])c5n5c4c1n2[C@]1([H])O[C@]5(C([H])([H])[H])[C@@]([H])(OC([H])([H])[H])[C@@]([H])(N([H])C([H])([H])[H])C1([H])[H])C([H])([H])N([H])C3=O


 37 44  0  0  0  0  0  0  0  0999 V2000
   55.3992   -3.9323   -9.1033 C   0  0  0  0  0  0  0  0  0  0  0  0
   54.0085   -3.2824   -8.7897 C   0  0  0  0  0  0  0  0  0  0  0  0
   53.7403   -3.7848   -7.5422 C   0  0  0  0  0  0  0  0  0  0  0  0
   54.7977   -3.3389   -6.7619 O   0  0  0  0  0  0  0  0  0  0  0  0
   55.6738   -4.4660   -6.6346 C   0  0  0  0  0  0  0  0  0  0  0  0
   56.9486   -3.7440   -6.0715 C   0  0  0  0  0  0  0  0  0  0  0  0
   55.8685   -4.9073   -7.9950 C   0  0  0  0  0  0  0  0  0  0  0  0
   55.1134   -5.2751   -5.5843 N   0  0  0  0  0  0  0  0  0  0  0  0
   55.8181   -6.0735   -4.7495 C   0  0  0  0  0  0  0  0  0  0  0  0
   57.1444   -6.4815   -4.6881 C   0  0  0  0  0  0  0  0  0  0  0  0
   57.5967   -7.3392   -3.6896 C   0  0  0  0  0  0  0  0  0  0  0  0
   56.7374   -7.8147   -2.7238 C   0  0  0  0  0  0  0  0  0  0  0  0
   55.4142   -7.4301   -2.7557 C   0  0  0  0  0  0  0  0  0  0  0  0
   55.0057   -6.5866   -3.7508 C   0  0  0  0  0  0  0  0  0  0  0  0
   53.7602   -6.0891   -3.9848 C   0  0  0  0  0  0  0  0  0  0  0  0
   52.5037   -6.1616   -3.3681 C   0  0  0  0  0  0  0  0  0  0  0  0
   52.1324   -6.9176   -2.1591 C   0  0  0  0  0  0  0  0  0  0  0  0
   50.7262   -6.6719   -1.9676 N   0  0  0  0  0  0  0  0  0  0  0  0
   50.2474   -5.7774   -2.9947 C   0  0  0  0  0  0  0  0  0  0  0  0
   49.0582   -5.4285   -2.9971 O   0  0  0  0  0  0  0  0  0  0  0  0
   51.3871   -5.4922   -3.8366 C   0  0  0  0  0  0  0  0  0  0  0  0
   51.4712   -4.7005   -4.9741 C   0  0  0  0  0  0  0  0  0  0  0  0
   50.6190   -3.9597   -5.7408 C   0  0  0  0  0  0  0  0  0  0  0  0
   49.2998   -3.6543   -5.6461 C   0  0  0  0  0  0  0  0  0  0  0  0
   48.7390   -2.8395   -6.6465 C   0  0  0  0  0  0  0  0  0  0  0  0
   49.5007   -2.3657   -7.6895 C   0  0  0  0  0  0  0  0  0  0  0  0
   50.8541   -2.6822   -7.7815 C   0  0  0  0  0  0  0  0  0  0  0  0
   51.3771   -3.4788   -6.7923 C   0  0  0  0  0  0  0  0  0  0  0  0
   52.6306   -3.8889   -6.6945 N   0  0  0  0  0  0  0  0  0  0  0  0
   52.7061   -4.6417   -5.5643 C   0  0  0  0  0  0  0  0  0  0  0  0
   53.8395   -5.3184   -5.0778 C   0  0  0  0  0  0  0  0  0  0  0  0
   50.1869   -7.1047   -1.1839 H   0  0  0  0  0  0  0  0  0  0  0  0
   56.0104   -4.3718  -11.4006 C   0  0  0  0  0  0  0  0  0  0  0  0
   55.2086   -4.7577  -10.2798 N   0  0  0  0  0  0  0  0  0  0  0  0
   54.2358   -5.0003  -10.4819 H   0  0  0  0  0  0  0  0  0  0  0  0
   55.6825   -6.2314   -8.3301 O   0  0  0  0  0  0  0  0  0  0  0  0
   54.7030   -6.9065   -7.6607 C   0  0  0  0  0  0  0  0  0  0  0  0
 33 34  1  0  0  0
 34  1  1  0  0  0
  1  2  1  0  0  0
  2  3  1  0  0  0
  3  4  1  0  0  0
  4  5  1  0  0  0
  5  6  1  0  0  0
  5  7  1  0  0  0
  7 36  1  0  0  0
 36 37  1  0  0  0
  5  8  1  0  0  0
  8  9  1  0  0  0
  9 10  2  0  0  0
 10 11  1  0  0  0
 11 12  2  0  0  0
 12 13  1  0  0  0
 13 14  2  0  0  0
 14 15  1  0  0  0
 15 16  2  0  0  0
 16 17  1  0  0  0
 17 18  1  0  0  0
 18 19  1  0  0  0
 19 20  2  0  0  0
 19 21  1  0  0  0
 21 22  2  0  0  0
 22 23  1  0  0  0
 23 24  2  0  0  0
 24 25  1  0  0  0
 25 26  2  0  0  0
 26 27  1  0  0  0
 27 28  2  0  0  0
 28 29  1  0  0  0
 29 30  1  0  0  0
 30 31  2  0  0  0
  7  1  1  0  0  0
 31  8  1  0  0  0
 29  3  1  0  0  0
 14  9  1  0  0  0
 31 15  1  0  0  0
 21 16  1  0  0  0
 30 22  1  0  0  0
 28 23  1  0  0  0
 34 35  1  0  0  0
 18 32  1  0  0  0
M  END
> <minimizedAffinity>
-2.93835

> <CNNscore>
0.3528643250

> <CNNaffinity>
7.2168045044

> <CNN_VS>
2.5465528965

> <CNNaffinity_variance>
0.4822152257

$$$$
[H]c1c([H])c([H])c2c(c1[H])c1c3c(c4c5c([H])c([H])c([H])c([H])c5n5c4c1n2[C@]1([H])O[C@]5(C([H])([H])[H])[C@@]([H])(OC([H])([H])[H])[C@@]([H])(N([H])C([H])([H])[H])C1([H])[H])C([H])([H])N([H])C3=O


 37 44  0  0  0  0  0  0  0  0999 V2000
   56.3333   -3.5568  -13.7270 C   0  0  0  0  0  0  0  0  0  0  0  0
   55.2583   -3.0971  -12.6840 C   0  0  0  0  0  0  0  0  0  0  0  0
   55.7920   -3.5620  -11.5094 C   0  0  0  0  0  0  0  0  0  0  0  0
   57.0219   -2.9257  -11.4198 O   0  0  0  0  0  0  0  0  0  0  0  0
   57.9844   -3.9062  -11.8279 C   0  0  0  0  0  0  0  0  0  0  0  0
   59.2338   -2.9780  -12.0301 C   0  0  0  0  0  0  0  0  0  0  0  0
   57.4711   -4.3905  -13.0870 C   0  0  0  0  0  0  0  0  0  0  0  0
   58.2159   -4.7272  -10.6686 N   0  0  0  0  0  0  0  0  0  0  0  0
   59.3723   -5.3680  -10.3804 C   0  0  0  0  0  0  0  0  0  0  0  0
   60.5618   -5.5769  -11.0668 C   0  0  0  0  0  0  0  0  0  0  0  0
   61.6080   -6.3032  -10.5056 C   0  0  0  0  0  0  0  0  0  0  0  0
   61.4966   -6.8425   -9.2430 C   0  0  0  0  0  0  0  0  0  0  0  0
   60.3294   -6.6545   -8.5345 C   0  0  0  0  0  0  0  0  0  0  0  0
   59.3232   -5.9357   -9.1171 C   0  0  0  0  0  0  0  0  0  0  0  0
   58.0930   -5.6363   -8.6166 C   0  0  0  0  0  0  0  0  0  0  0  0
   57.4029   -5.8540   -7.4163 C   0  0  0  0  0  0  0  0  0  0  0  0
   57.8688   -6.5866   -6.2258 C   0  0  0  0  0  0  0  0  0  0  0  0
   56.7757   -6.5352   -5.2894 N   0  0  0  0  0  0  0  0  0  0  0  0
   55.6864   -5.7779   -5.8588 C   0  0  0  0  0  0  0  0  0  0  0  0
   54.6513   -5.6043   -5.1999 O   0  0  0  0  0  0  0  0  0  0  0  0
   56.1255   -5.3795   -7.1770 C   0  0  0  0  0  0  0  0  0  0  0  0
   55.4560   -4.6489   -8.1496 C   0  0  0  0  0  0  0  0  0  0  0  0
   54.2237   -4.0826   -8.3020 C   0  0  0  0  0  0  0  0  0  0  0  0
   53.1406   -3.9652   -7.4922 C   0  0  0  0  0  0  0  0  0  0  0  0
   52.0102   -3.2969   -7.9971 C   0  0  0  0  0  0  0  0  0  0  0  0
   51.9994   -2.7777   -9.2710 C   0  0  0  0  0  0  0  0  0  0  0  0
   53.1138   -2.9010  -10.0976 C   0  0  0  0  0  0  0  0  0  0  0  0
   54.2041   -3.5574   -9.5809 C   0  0  0  0  0  0  0  0  0  0  0  0
   55.3536   -3.7768  -10.1970 N   0  0  0  0  0  0  0  0  0  0  0  0
   56.1448   -4.4464   -9.3164 C   0  0  0  0  0  0  0  0  0  0  0  0
   57.4470   -4.9247   -9.5501 C   0  0  0  0  0  0  0  0  0  0  0  0
   56.8227   -6.9964   -4.3527 H   0  0  0  0  0  0  0  0  0  0  0  0
   55.8566   -4.1619  -16.0185 C   0  0  0  0  0  0  0  0  0  0  0  0
   55.6601   -4.4657  -14.6339 N   0  0  0  0  0  0  0  0  0  0  0  0
   54.7094   -4.7229  -14.3580 H   0  0  0  0  0  0  0  0  0  0  0  0
   57.3350   -5.7443  -13.3082 O   0  0  0  0  0  0  0  0  0  0  0  0
   56.0683   -6.2145  -13.5021 C   0  0  0  0  0  0  0  0  0  0  0  0
 33 34  1  0  0  0
 34  1  1  0  0  0
  1  2  1  0  0  0
  2  3  1  0  0  0
  3  4  1  0  0  0
  4  5  1  0  0  0
  5  6  1  0  0  0
  5  7  1  0  0  0
  7 36  1  0  0  0
 36 37  1  0  0  0
  5  8  1  0  0  0
  8  9  1  0  0  0
  9 10  2  0  0  0
 10 11  1  0  0  0
 11 12  2  0  0  0
 12 13  1  0  0  0
 13 14  2  0  0  0
 14 15  1  0  0  0
 15 16  2  0  0  0
 16 17  1  0  0  0
 17 18  1  0  0  0
 18 19  1  0  0  0
 19 20  2  0  0  0
 19 21  1  0  0  0
 21 22  2  0  0  0
 22 23  1  0  0  0
 23 24  2  0  0  0
 24 25  1  0  0  0
 25 26  2  0  0  0
 26 27  1  0  0  0
 27 28  2  0  0  0
 28 29  1  0  0  0
 29 30  1  0  0  0
 30 31  2  0  0  0
  7  1  1  0  0  0
 31  8  1  0  0  0
 29  3  1  0  0  0
 14  9  1  0  0  0
 31 15  1  0  0  0
 21 16  1  0  0  0
 30 22  1  0  0  0
 28 23  1  0  0  0
 34 35  1  0  0  0
 18 32  1  0  0  0
M  END
> <minimizedAffinity>
-0.42438

> <CNNscore>
0.3228743970

> <CNNaffinity>
6.2246403694

> <CNN_VS>
2.0097770691

> <CNNaffinity_variance>
0.1360586286

$$$$
[H]c1c([H])c([H])c2c(c1[H])c1c3c(c4c5c([H])c([H])c([H])c([H])c5n5c4c1n2[C@]1([H])O[C@]5(C([H])([H])[H])[C@@]([H])(OC([H])([H])[H])[C@@]([H])(N([H])C([H])([H])[H])C1([H])[H])C([H])([H])N([H])C3=O


 37 44  0  0  0  0  0  0  0  0999 V2000
   63.3627   -8.6999  -11.2888 C   0  0  0  0  0  0  0  0  0  0  0  0
   63.7931   -9.7152  -10.1758 C   0  0  0  0  0  0  0  0  0  0  0  0
   63.4158   -9.0551   -9.0345 C   0  0  0  0  0  0  0  0  0  0  0  0
   62.0478   -8.8754   -9.1825 O   0  0  0  0  0  0  0  0  0  0  0  0
   61.8890   -7.5118   -9.5943 C   0  0  0  0  0  0  0  0  0  0  0  0
   60.3928   -7.5537  -10.0666 C   0  0  0  0  0  0  0  0  0  0  0  0
   62.7962   -7.3799  -10.7091 C   0  0  0  0  0  0  0  0  0  0  0  0
   61.9584   -6.7322   -8.3863 N   0  0  0  0  0  0  0  0  0  0  0  0
   61.3304   -5.5518   -8.1783 C   0  0  0  0  0  0  0  0  0  0  0  0
   60.6043   -4.6848   -8.9849 C   0  0  0  0  0  0  0  0  0  0  0  0
   60.0656   -3.5034   -8.4836 C   0  0  0  0  0  0  0  0  0  0  0  0
   60.2369   -3.1533   -7.1624 C   0  0  0  0  0  0  0  0  0  0  0  0
   60.9528   -3.9910   -6.3344 C   0  0  0  0  0  0  0  0  0  0  0  0
   61.4670   -5.1428   -6.8612 C   0  0  0  0  0  0  0  0  0  0  0  0
   62.2080   -6.1031   -6.2430 C   0  0  0  0  0  0  0  0  0  0  0  0
   62.6786   -6.3463   -4.9454 C   0  0  0  0  0  0  0  0  0  0  0  0
   62.5033   -5.5059   -3.7479 C   0  0  0  0  0  0  0  0  0  0  0  0
   63.1959   -6.1942   -2.6891 N   0  0  0  0  0  0  0  0  0  0  0  0
   63.7534   -7.4255   -3.1966 C   0  0  0  0  0  0  0  0  0  0  0  0
   64.3791   -8.1747   -2.4331 O   0  0  0  0  0  0  0  0  0  0  0  0
   63.4055   -7.4714   -4.5987 C   0  0  0  0  0  0  0  0  0  0  0  0
   63.7086   -8.4315   -5.5548 C   0  0  0  0  0  0  0  0  0  0  0  0
   64.4161   -9.5973   -5.6105 C   0  0  0  0  0  0  0  0  0  0  0  0
   65.0857  -10.3313   -4.6855 C   0  0  0  0  0  0  0  0  0  0  0  0
   65.7151  -11.5144   -5.1136 C   0  0  0  0  0  0  0  0  0  0  0  0
   65.6560  -11.9176   -6.4275 C   0  0  0  0  0  0  0  0  0  0  0  0
   64.9673  -11.1606   -7.3724 C   0  0  0  0  0  0  0  0  0  0  0  0
   64.3616  -10.0104   -6.9289 C   0  0  0  0  0  0  0  0  0  0  0  0
   63.6614   -9.1592   -7.6599 N   0  0  0  0  0  0  0  0  0  0  0  0
   63.2416   -8.1774   -6.8175 C   0  0  0  0  0  0  0  0  0  0  0  0
   62.4959   -7.0351   -7.1614 C   0  0  0  0  0  0  0  0  0  0  0  0
   63.2521   -5.8102   -1.7187 H   0  0  0  0  0  0  0  0  0  0  0  0
   64.9047   -9.1665  -13.0912 C   0  0  0  0  0  0  0  0  0  0  0  0
   64.5755   -8.3193  -11.9859 N   0  0  0  0  0  0  0  0  0  0  0  0
   65.3521   -8.0451  -11.3794 H   0  0  0  0  0  0  0  0  0  0  0  0
   63.7032   -6.3427  -10.7490 O   0  0  0  0  0  0  0  0  0  0  0  0
   64.5407   -6.2127   -9.6789 C   0  0  0  0  0  0  0  0  0  0  0  0
 33 34  1  0  0  0
 34  1  1  0  0  0
  1  2  1  0  0  0
  2  3  1  0  0  0
  3  4  1  0  0  0
  4  5  1  0  0  0
  5  6  1  0  0  0
  5  7  1  0  0  0
  7 36  1  0  0  0
 36 37  1  0  0  0
  5  8  1  0  0  0
  8  9  1  0  0  0
  9 10  2  0  0  0
 10 11  1  0  0  0
 11 12  2  0  0  0
 12 13  1  0  0  0
 13 14  2  0  0  0
 14 15  1  0  0  0
 15 16  2  0  0  0
 16 17  1  0  0  0
 17 18  1  0  0  0
 18 19  1  0  0  0
 19 20  2  0  0  0
 19 21  1  0  0  0
 21 22  2  0  0  0
 22 23  1  0  0  0
 23 24  2  0  0  0
 24 25  1  0  0  0
 25 26  2  0  0  0
 26 27  1  0  0  0
 27 28  2  0  0  0
 28 29  1  0  0  0
 29 30  1  0  0  0
 30 31  2  0  0  0
  7  1  1  0  0  0
 31  8  1  0  0  0
 29  3  1  0  0  0
 14  9  1  0  0  0
 31 15  1  0  0  0
 21 16  1  0  0  0
 30 22  1  0  0  0
 28 23  1  0  0  0
 34 35  1  0  0  0
 18 32  1  0  0  0
M  END
> <minimizedAffinity>
61.70345

> <CNNscore>
0.2725294232

> <CNNaffinity>
4.5702447891

> <CNN_VS>
1.2455261946

> <CNNaffinity_variance>
0.3861511350

$$$$
[H]c1c([H])c([H])c2c(c1[H])c1c3c(c4c5c([H])c([H])c([H])c([H])c5n5c4c1n2[C@]1([H])O[C@]5(C([H])([H])[H])[C@@]([H])(OC([H])([H])[H])[C@@]([H])(N([H])C([H])([H])[H])C1([H])[H])C([H])([H])N([H])C3=O


 37 44  0  0  0  0  0  0  0  0999 V2000
   62.2195   -2.4992  -14.9896 C   0  0  0  0  0  0  0  0  0  0  0  0
   63.0683   -3.8158  -15.0219 C   0  0  0  0  0  0  0  0  0  0  0  0
   62.4481   -4.5716  -14.0603 C   0  0  0  0  0  0  0  0  0  0  0  0
   61.1418   -4.6917  -14.5127 O   0  0  0  0  0  0  0  0  0  0  0  0
   60.3882   -3.7448  -13.7448 C   0  0  0  0  0  0  0  0  0  0  0  0
   59.0625   -3.7227  -14.5847 C   0  0  0  0  0  0  0  0  0  0  0  0
   61.1305   -2.5152  -13.8882 C   0  0  0  0  0  0  0  0  0  0  0  0
   60.1155   -4.3941  -12.4895 N   0  0  0  0  0  0  0  0  0  0  0  0
   59.0297   -4.1734  -11.7127 C   0  0  0  0  0  0  0  0  0  0  0  0
   57.9854   -3.2580  -11.7439 C   0  0  0  0  0  0  0  0  0  0  0  0
   56.9822   -3.2651  -10.7792 C   0  0  0  0  0  0  0  0  0  0  0  0
   56.9931   -4.1861   -9.7551 C   0  0  0  0  0  0  0  0  0  0  0  0
   58.0155   -5.1085   -9.6939 C   0  0  0  0  0  0  0  0  0  0  0  0
   58.9833   -5.0719  -10.6585 C   0  0  0  0  0  0  0  0  0  0  0  0
   60.0806   -5.8667  -10.7917 C   0  0  0  0  0  0  0  0  0  0  0  0
   60.6235   -6.9715  -10.1217 C   0  0  0  0  0  0  0  0  0  0  0  0
   60.1044   -7.6426   -8.9170 C   0  0  0  0  0  0  0  0  0  0  0  0
   61.0417   -8.6977   -8.6294 N   0  0  0  0  0  0  0  0  0  0  0  0
   62.0840   -8.7040   -9.6284 C   0  0  0  0  0  0  0  0  0  0  0  0
   62.9856   -9.5521   -9.5672 O   0  0  0  0  0  0  0  0  0  0  0  0
   61.7787   -7.6151  -10.5285 C   0  0  0  0  0  0  0  0  0  0  0  0
   62.4679   -7.1744  -11.6504 C   0  0  0  0  0  0  0  0  0  0  0  0
   63.6198   -7.4989  -12.3065 C   0  0  0  0  0  0  0  0  0  0  0  0
   64.5556   -8.4668  -12.1325 C   0  0  0  0  0  0  0  0  0  0  0  0
   65.6416   -8.5011  -13.0261 C   0  0  0  0  0  0  0  0  0  0  0  0
   65.7549   -7.5840  -14.0452 C   0  0  0  0  0  0  0  0  0  0  0  0
   64.7916   -6.5929  -14.2191 C   0  0  0  0  0  0  0  0  0  0  0  0
   63.7416   -6.5815  -13.3336 C   0  0  0  0  0  0  0  0  0  0  0  0
   62.7283   -5.7316  -13.3277 N   0  0  0  0  0  0  0  0  0  0  0  0
   61.9239   -6.0934  -12.2925 C   0  0  0  0  0  0  0  0  0  0  0  0
   60.7440   -5.4487  -11.8781 C   0  0  0  0  0  0  0  0  0  0  0  0
   60.9310   -9.3319   -7.8061 H   0  0  0  0  0  0  0  0  0  0  0  0
   64.4362   -1.5536  -15.1794 C   0  0  0  0  0  0  0  0  0  0  0  0
   63.1288   -1.4360  -14.6094 N   0  0  0  0  0  0  0  0  0  0  0  0
   63.0879   -1.1672  -13.6235 H   0  0  0  0  0  0  0  0  0  0  0  0
   61.4803   -1.7800  -12.7759 O   0  0  0  0  0  0  0  0  0  0  0  0
   60.8867   -0.5595  -12.6302 C   0  0  0  0  0  0  0  0  0  0  0  0
 33 34  1  0  0  0
 34  1  1  0  0  0
  1  2  1  0  0  0
  2  3  1  0  0  0
  3  4  1  0  0  0
  4  5  1  0  0  0
  5  6  1  0  0  0
  5  7  1  0  0  0
  7 36  1  0  0  0
 36 37  1  0  0  0
  5  8  1  0  0  0
  8  9  1  0  0  0
  9 10  2  0  0  0
 10 11  1  0  0  0
 11 12  2  0  0  0
 12 13  1  0  0  0
 13 14  2  0  0  0
 14 15  1  0  0  0
 15 16  2  0  0  0
 16 17  1  0  0  0
 17 18  1  0  0  0
 18 19  1  0  0  0
 19 20  2  0  0  0
 19 21  1  0  0  0
 21 22  2  0  0  0
 22 23  1  0  0  0
 23 24  2  0  0  0
 24 25  1  0  0  0
 25 26  2  0  0  0
 26 27  1  0  0  0
 27 28  2  0  0  0
 28 29  1  0  0  0
 29 30  1  0  0  0
 30 31  2  0  0  0
  7  1  1  0  0  0
 31  8  1  0  0  0
 29  3  1  0  0  0
 14  9  1  0  0  0
 31 15  1  0  0  0
 21 16  1  0  0  0
 30 22  1  0  0  0
 28 23  1  0  0  0
 34 35  1  0  0  0
 18 32  1  0  0  0
M  END
> <minimizedAffinity>
2.11495

> <CNNscore>
0.2595653534

> <CNNaffinity>
4.8132767677

> <CNN_VS>
1.2493598461

> <CNNaffinity_variance>
0.3530893326

$$$$
