[H]C1=C([H])[C@@]([H])(N([H])C(=O)c2c([H])c([H])c([H])c([H])c2[H])C([H])([H])C([H])([H])C([H])([H])N(c2c([H])c([H])c([H])c(C(C(=O)OC([H])([H])[H])(C([H])([H])[H])C([H])([H])[H])c2[H])C([H])([H])C([H])([H])OC([H])([H])C([H])([H])N1c1c([H])c([H])c([H])c([H])c1[H]


 42 45  0  0  0  0  0  0  0  0999 V2000
   55.4361   -5.1712   -5.1383 C   0  0  0  0  0  0  0  0  0  0  0  0
   55.4950   -6.2568   -6.1981 C   0  0  0  0  0  0  0  0  0  0  0  0
   56.8130   -6.1670   -6.9029 C   0  0  0  0  0  0  0  0  0  0  0  0
   56.6995   -6.3856   -8.3855 C   0  0  0  0  0  0  0  0  0  0  0  0
   57.1036   -5.1796   -9.1114 N   0  0  0  0  0  0  0  0  0  0  0  0
   56.3170   -3.9825   -9.0359 C   0  0  0  0  0  0  0  0  0  0  0  0
   54.8725   -4.1465   -9.4026 C   0  0  0  0  0  0  0  0  0  0  0  0
   54.1321   -3.3254   -8.5228 O   0  0  0  0  0  0  0  0  0  0  0  0
   52.9517   -3.9670   -8.1051 C   0  0  0  0  0  0  0  0  0  0  0  0
   52.6978   -3.6666   -6.6478 C   0  0  0  0  0  0  0  0  0  0  0  0
   52.3819   -4.8836   -5.9126 N   0  0  0  0  0  0  0  0  0  0  0  0
   52.9735   -5.2834   -4.7033 C   0  0  0  0  0  0  0  0  0  0  0  0
   54.2159   -5.4173   -4.3345 C   0  0  0  0  0  0  0  0  0  0  0  0
   51.3433   -5.6549   -6.5371 C   0  0  0  0  0  0  0  0  0  0  0  0
   51.6268   -6.7800   -7.3014 C   0  0  0  0  0  0  0  0  0  0  0  0
   50.6373   -7.5431   -7.8871 C   0  0  0  0  0  0  0  0  0  0  0  0
   49.3163   -7.2230   -7.7404 C   0  0  0  0  0  0  0  0  0  0  0  0
   48.9915   -6.1202   -6.9941 C   0  0  0  0  0  0  0  0  0  0  0  0
   50.0080   -5.3557   -6.4057 C   0  0  0  0  0  0  0  0  0  0  0  0
   58.3045   -5.1803   -9.8787 C   0  0  0  0  0  0  0  0  0  0  0  0
   59.4235   -5.8972   -9.4808 C   0  0  0  0  0  0  0  0  0  0  0  0
   60.5952   -5.9296  -10.2069 C   0  0  0  0  0  0  0  0  0  0  0  0
   60.6704   -5.2221  -11.3804 C   0  0  0  0  0  0  0  0  0  0  0  0
   59.5859   -4.4817  -11.8368 C   0  0  0  0  0  0  0  0  0  0  0  0
   58.4372   -4.4838  -11.0728 C   0  0  0  0  0  0  0  0  0  0  0  0
   59.6909   -3.7224  -13.1165 C   0  0  0  0  0  0  0  0  0  0  0  0
   59.9032   -2.2504  -12.8945 C   0  0  0  0  0  0  0  0  0  0  0  0
   60.8570   -4.2414  -13.9413 C   0  0  0  0  0  0  0  0  0  0  0  0
   58.4661   -3.9074  -13.9245 C   0  0  0  0  0  0  0  0  0  0  0  0
   57.4655   -4.5640  -13.5211 O   0  0  0  0  0  0  0  0  0  0  0  0
   58.4082   -3.3361  -15.1849 O   0  0  0  0  0  0  0  0  0  0  0  0
   57.2786   -3.6456  -16.0119 C   0  0  0  0  0  0  0  0  0  0  0  0
   55.8900   -7.2980   -3.2756 O   0  0  0  0  0  0  0  0  0  0  0  0
   56.8079   -6.4608   -3.4356 C   0  0  0  0  0  0  0  0  0  0  0  0
   56.6524   -5.4074   -4.3244 N   0  0  0  0  0  0  0  0  0  0  0  0
   57.3979   -4.7071   -4.4728 H   0  0  0  0  0  0  0  0  0  0  0  0
   58.0335   -6.6172   -2.6714 C   0  0  0  0  0  0  0  0  0  0  0  0
   58.2658   -6.0856   -1.4403 C   0  0  0  0  0  0  0  0  0  0  0  0
   59.4384   -6.2558   -0.7485 C   0  0  0  0  0  0  0  0  0  0  0  0
   60.4561   -7.0160   -1.3359 C   0  0  0  0  0  0  0  0  0  0  0  0
   60.2700   -7.5710   -2.5735 C   0  0  0  0  0  0  0  0  0  0  0  0
   59.0835   -7.3738   -3.2233 C   0  0  0  0  0  0  0  0  0  0  0  0
 33 34  2  0  0  0
 34 35  1  0  0  0
 35  1  1  0  0  0
  1  2  1  0  0  0
  2  3  1  0  0  0
  3  4  1  0  0  0
  4  5  1  0  0  0
  5  6  1  0  0  0
  6  7  1  0  0  0
  7  8  1  0  0  0
  8  9  1  0  0  0
  9 10  1  0  0  0
 10 11  1  0  0  0
 11 12  1  0  0  0
 12 13  2  0  0  0
 11 14  1  0  0  0
 14 15  2  0  0  0
 15 16  1  0  0  0
 16 17  2  0  0  0
 17 18  1  0  0  0
 18 19  2  0  0  0
  5 20  1  0  0  0
 20 21  2  0  0  0
 21 22  1  0  0  0
 22 23  2  0  0  0
 23 24  1  0  0  0
 24 25  2  0  0  0
 24 26  1  0  0  0
 26 27  1  0  0  0
 26 28  1  0  0  0
 26 29  1  0  0  0
 29 30  2  0  0  0
 29 31  1  0  0  0
 31 32  1  0  0  0
 34 37  1  0  0  0
 37 38  2  0  0  0
 38 39  1  0  0  0
 39 40  2  0  0  0
 40 41  1  0  0  0
 41 42  2  0  0  0
 13  1  1  0  0  0
 19 14  1  0  0  0
 25 20  1  0  0  0
 42 37  1  0  0  0
 35 36  1  0  0  0
M  END
> <minimizedAffinity>
0.81271

> <CNNscore>
0.4195663035

> <CNNaffinity>
6.8316473961

> <CNN_VS>
2.8663289547

> <CNNaffinity_variance>
0.7212702036

$$$$
[H]C1=C([H])[C@@]([H])(N([H])C(=O)c2c([H])c([H])c([H])c([H])c2[H])C([H])([H])C([H])([H])C([H])([H])N(c2c([H])c([H])c([H])c(C(C(=O)OC([H])([H])[H])(C([H])([H])[H])C([H])([H])[H])c2[H])C([H])([H])C([H])([H])OC([H])([H])C([H])([H])N1c1c([H])c([H])c([H])c([H])c1[H]


 42 45  0  0  0  0  0  0  0  0999 V2000
   55.3922   -5.1300   -5.1562 C   0  0  0  0  0  0  0  0  0  0  0  0
   55.4313   -6.2284   -6.2035 C   0  0  0  0  0  0  0  0  0  0  0  0
   56.7447   -6.1611   -6.9194 C   0  0  0  0  0  0  0  0  0  0  0  0
   56.6174   -6.3958   -8.3984 C   0  0  0  0  0  0  0  0  0  0  0  0
   57.0287   -5.2028   -9.1415 N   0  0  0  0  0  0  0  0  0  0  0  0
   56.2556   -3.9965   -9.0741 C   0  0  0  0  0  0  0  0  0  0  0  0
   54.8066   -4.1491   -9.4278 C   0  0  0  0  0  0  0  0  0  0  0  0
   54.0819   -3.3098   -8.5521 O   0  0  0  0  0  0  0  0  0  0  0  0
   52.8980   -3.9337   -8.1179 C   0  0  0  0  0  0  0  0  0  0  0  0
   52.6586   -3.6135   -6.6624 C   0  0  0  0  0  0  0  0  0  0  0  0
   52.3354   -4.8184   -5.9105 N   0  0  0  0  0  0  0  0  0  0  0  0
   52.9320   -5.2104   -4.7012 C   0  0  0  0  0  0  0  0  0  0  0  0
   54.1758   -5.3534   -4.3403 C   0  0  0  0  0  0  0  0  0  0  0  0
   51.2838   -5.5856   -6.5180 C   0  0  0  0  0  0  0  0  0  0  0  0
   51.5372   -6.7860   -7.1702 C   0  0  0  0  0  0  0  0  0  0  0  0
   50.5333   -7.5443   -7.7373 C   0  0  0  0  0  0  0  0  0  0  0  0
   49.2272   -7.1443   -7.6828 C   0  0  0  0  0  0  0  0  0  0  0  0
   48.9321   -5.9655   -7.0486 C   0  0  0  0  0  0  0  0  0  0  0  0
   49.9629   -5.2070   -6.4776 C   0  0  0  0  0  0  0  0  0  0  0  0
   58.2236   -5.2254   -9.9178 C   0  0  0  0  0  0  0  0  0  0  0  0
   58.3463   -4.4915  -11.0886 C   0  0  0  0  0  0  0  0  0  0  0  0
   59.4926   -4.4810  -11.8548 C   0  0  0  0  0  0  0  0  0  0  0  0
   60.5699   -5.2290  -11.4506 C   0  0  0  0  0  0  0  0  0  0  0  0
   60.5139   -5.9882  -10.2874 C   0  0  0  0  0  0  0  0  0  0  0  0
   59.3437   -5.9629   -9.5572 C   0  0  0  0  0  0  0  0  0  0  0  0
   61.6985   -6.7916   -9.8672 C   0  0  0  0  0  0  0  0  0  0  0  0
   61.4170   -8.2686   -9.8602 C   0  0  0  0  0  0  0  0  0  0  0  0
   62.8629   -6.5444  -10.8120 C   0  0  0  0  0  0  0  0  0  0  0  0
   62.1387   -6.3872   -8.5144 C   0  0  0  0  0  0  0  0  0  0  0  0
   61.6258   -6.8462   -7.4555 O   0  0  0  0  0  0  0  0  0  0  0  0
   63.1615   -5.4606   -8.3971 O   0  0  0  0  0  0  0  0  0  0  0  0
   64.2927   -5.8074   -7.5873 C   0  0  0  0  0  0  0  0  0  0  0  0
   55.7725   -7.1276   -3.1404 O   0  0  0  0  0  0  0  0  0  0  0  0
   56.7306   -6.3579   -3.3828 C   0  0  0  0  0  0  0  0  0  0  0  0
   56.6122   -5.3697   -4.3489 N   0  0  0  0  0  0  0  0  0  0  0  0
   57.3910   -4.7258   -4.5658 H   0  0  0  0  0  0  0  0  0  0  0  0
   57.9630   -6.5227   -2.6315 C   0  0  0  0  0  0  0  0  0  0  0  0
   58.2083   -6.0004   -1.3989 C   0  0  0  0  0  0  0  0  0  0  0  0
   59.3870   -6.1784   -0.7195 C   0  0  0  0  0  0  0  0  0  0  0  0
   60.3973   -6.9367   -1.3220 C   0  0  0  0  0  0  0  0  0  0  0  0
   60.1981   -7.4824   -2.5616 C   0  0  0  0  0  0  0  0  0  0  0  0
   59.0059   -7.2778   -3.1988 C   0  0  0  0  0  0  0  0  0  0  0  0
 33 34  2  0  0  0
 34 35  1  0  0  0
 35  1  1  0  0  0
  1  2  1  0  0  0
  2  3  1  0  0  0
  3  4  1  0  0  0
  4  5  1  0  0  0
  5  6  1  0  0  0
  6  7  1  0  0  0
  7  8  1  0  0  0
  8  9  1  0  0  0
  9 10  1  0  0  0
 10 11  1  0  0  0
 11 12  1  0  0  0
 12 13  2  0  0  0
 11 14  1  0  0  0
 14 15  2  0  0  0
 15 16  1  0  0  0
 16 17  2  0  0  0
 17 18  1  0  0  0
 18 19  2  0  0  0
  5 20  1  0  0  0
 20 21  2  0  0  0
 21 22  1  0  0  0
 22 23  2  0  0  0
 23 24  1  0  0  0
 24 25  2  0  0  0
 24 26  1  0  0  0
 26 27  1  0  0  0
 26 28  1  0  0  0
 26 29  1  0  0  0
 29 30  2  0  0  0
 29 31  1  0  0  0
 31 32  1  0  0  0
 34 37  1  0  0  0
 37 38  2  0  0  0
 38 39  1  0  0  0
 39 40  2  0  0  0
 40 41  1  0  0  0
 41 42  2  0  0  0
 13  1  1  0  0  0
 19 14  1  0  0  0
 25 20  1  0  0  0
 42 37  1  0  0  0
 35 36  1  0  0  0
M  END
> <minimizedAffinity>
-0.58967

> <CNNscore>
0.4102778137

> <CNNaffinity>
6.9032297134

> <CNN_VS>
2.8322420120

> <CNNaffinity_variance>
0.8421328664

$$$$
[H]C1=C([H])[C@@]([H])(N([H])C(=O)c2c([H])c([H])c([H])c([H])c2[H])C([H])([H])C([H])([H])C([H])([H])N(c2c([H])c([H])c([H])c(C(C(=O)OC([H])([H])[H])(C([H])([H])[H])C([H])([H])[H])c2[H])C([H])([H])C([H])([H])OC([H])([H])C([H])([H])N1c1c([H])c([H])c([H])c([H])c1[H]


 42 45  0  0  0  0  0  0  0  0999 V2000
   54.2474   -5.3149   -5.5715 C   0  0  0  0  0  0  0  0  0  0  0  0
   55.2268   -4.1831   -5.8260 C   0  0  0  0  0  0  0  0  0  0  0  0
   55.2981   -3.9339   -7.3006 C   0  0  0  0  0  0  0  0  0  0  0  0
   56.6956   -3.6590   -7.7805 C   0  0  0  0  0  0  0  0  0  0  0  0
   57.1273   -4.6989   -8.7169 N   0  0  0  0  0  0  0  0  0  0  0  0
   57.3425   -6.0441   -8.2676 C   0  0  0  0  0  0  0  0  0  0  0  0
   58.2966   -6.1862   -7.1198 C   0  0  0  0  0  0  0  0  0  0  0  0
   57.7816   -7.2026   -6.2843 O   0  0  0  0  0  0  0  0  0  0  0  0
   57.9350   -6.8673   -4.9266 C   0  0  0  0  0  0  0  0  0  0  0  0
   56.7135   -7.3025   -4.1540 C   0  0  0  0  0  0  0  0  0  0  0  0
   56.2363   -6.2326   -3.2884 N   0  0  0  0  0  0  0  0  0  0  0  0
   54.9087   -5.7827   -3.2029 C   0  0  0  0  0  0  0  0  0  0  0  0
   54.0517   -5.3961   -4.1051 C   0  0  0  0  0  0  0  0  0  0  0  0
   57.2765   -5.6778   -2.4676 C   0  0  0  0  0  0  0  0  0  0  0  0
   57.6435   -4.3407   -2.5564 C   0  0  0  0  0  0  0  0  0  0  0  0
   58.6247   -3.7899   -1.7575 C   0  0  0  0  0  0  0  0  0  0  0  0
   59.2889   -4.5439   -0.8305 C   0  0  0  0  0  0  0  0  0  0  0  0
   58.9584   -5.8686   -0.7095 C   0  0  0  0  0  0  0  0  0  0  0  0
   57.9597   -6.4129   -1.5281 C   0  0  0  0  0  0  0  0  0  0  0  0
   57.3087   -4.3842  -10.0949 C   0  0  0  0  0  0  0  0  0  0  0  0
   56.2411   -4.0392  -10.9107 C   0  0  0  0  0  0  0  0  0  0  0  0
   56.3846   -3.7162  -12.2435 C   0  0  0  0  0  0  0  0  0  0  0  0
   57.6385   -3.7343  -12.8011 C   0  0  0  0  0  0  0  0  0  0  0  0
   58.7518   -4.0720  -12.0402 C   0  0  0  0  0  0  0  0  0  0  0  0
   58.5530   -4.3860  -10.7116 C   0  0  0  0  0  0  0  0  0  0  0  0
   60.1049   -4.0827  -12.6681 C   0  0  0  0  0  0  0  0  0  0  0  0
   60.0429   -4.2366  -14.1626 C   0  0  0  0  0  0  0  0  0  0  0  0
   60.8356   -2.7853  -12.3639 C   0  0  0  0  0  0  0  0  0  0  0  0
   60.9195   -5.1849  -12.1121 C   0  0  0  0  0  0  0  0  0  0  0  0
   61.9964   -5.5814  -12.6394 O   0  0  0  0  0  0  0  0  0  0  0  0
   60.4850   -5.8165  -10.9586 O   0  0  0  0  0  0  0  0  0  0  0  0
   61.4557   -6.1031   -9.9430 C   0  0  0  0  0  0  0  0  0  0  0  0
   51.6569   -5.0126   -4.3897 O   0  0  0  0  0  0  0  0  0  0  0  0
   51.7757   -4.7376   -5.6059 C   0  0  0  0  0  0  0  0  0  0  0  0
   53.0038   -4.8611   -6.2386 N   0  0  0  0  0  0  0  0  0  0  0  0
   53.1238   -4.6373   -7.2405 H   0  0  0  0  0  0  0  0  0  0  0  0
   50.6023   -4.2892   -6.3358 C   0  0  0  0  0  0  0  0  0  0  0  0
   49.9165   -5.0266   -7.2513 C   0  0  0  0  0  0  0  0  0  0  0  0
   48.8105   -4.5678   -7.9213 C   0  0  0  0  0  0  0  0  0  0  0  0
   48.3582   -3.2706   -7.6541 C   0  0  0  0  0  0  0  0  0  0  0  0
   49.0152   -2.4899   -6.7414 C   0  0  0  0  0  0  0  0  0  0  0  0
   50.1124   -2.9919   -6.0986 C   0  0  0  0  0  0  0  0  0  0  0  0
 33 34  2  0  0  0
 34 35  1  0  0  0
 35  1  1  0  0  0
  1  2  1  0  0  0
  2  3  1  0  0  0
  3  4  1  0  0  0
  4  5  1  0  0  0
  5  6  1  0  0  0
  6  7  1  0  0  0
  7  8  1  0  0  0
  8  9  1  0  0  0
  9 10  1  0  0  0
 10 11  1  0  0  0
 11 12  1  0  0  0
 12 13  2  0  0  0
 11 14  1  0  0  0
 14 15  2  0  0  0
 15 16  1  0  0  0
 16 17  2  0  0  0
 17 18  1  0  0  0
 18 19  2  0  0  0
  5 20  1  0  0  0
 20 21  2  0  0  0
 21 22  1  0  0  0
 22 23  2  0  0  0
 23 24  1  0  0  0
 24 25  2  0  0  0
 24 26  1  0  0  0
 26 27  1  0  0  0
 26 28  1  0  0  0
 26 29  1  0  0  0
 29 30  2  0  0  0
 29 31  1  0  0  0
 31 32  1  0  0  0
 34 37  1  0  0  0
 37 38  2  0  0  0
 38 39  1  0  0  0
 39 40  2  0  0  0
 40 41  1  0  0  0
 41 42  2  0  0  0
 13  1  1  0  0  0
 19 14  1  0  0  0
 25 20  1  0  0  0
 42 37  1  0  0  0
 35 36  1  0  0  0
M  END
> <minimizedAffinity>
5.19490

> <CNNscore>
0.4023307264

> <CNNaffinity>
6.6191735268

> <CNN_VS>
2.6630969048

> <CNNaffinity_variance>
0.4754539430

$$$$
[H]C1=C([H])[C@@]([H])(N([H])C(=O)c2c([H])c([H])c([H])c([H])c2[H])C([H])([H])C([H])([H])C([H])([H])N(c2c([H])c([H])c([H])c(C(C(=O)OC([H])([H])[H])(C([H])([H])[H])C([H])([H])[H])c2[H])C([H])([H])C([H])([H])OC([H])([H])C([H])([H])N1c1c([H])c([H])c([H])c([H])c1[H]


 42 45  0  0  0  0  0  0  0  0999 V2000
   58.3310   -5.8834   -7.1135 C   0  0  0  0  0  0  0  0  0  0  0  0
   57.7469   -7.1838   -6.5912 C   0  0  0  0  0  0  0  0  0  0  0  0
   56.6206   -6.8624   -5.6585 C   0  0  0  0  0  0  0  0  0  0  0  0
   56.5946   -7.7491   -4.4453 C   0  0  0  0  0  0  0  0  0  0  0  0
   56.8029   -6.9581   -3.2306 N   0  0  0  0  0  0  0  0  0  0  0  0
   58.0657   -6.3267   -2.9767 C   0  0  0  0  0  0  0  0  0  0  0  0
   59.2523   -7.2426   -3.0079 C   0  0  0  0  0  0  0  0  0  0  0  0
   60.3071   -6.5237   -3.6139 O   0  0  0  0  0  0  0  0  0  0  0  0
   61.0455   -7.3465   -4.4839 C   0  0  0  0  0  0  0  0  0  0  0  0
   61.4331   -6.5655   -5.7161 C   0  0  0  0  0  0  0  0  0  0  0  0
   61.1421   -7.3231   -6.9256 N   0  0  0  0  0  0  0  0  0  0  0  0
   60.4492   -6.8370   -8.0462 C   0  0  0  0  0  0  0  0  0  0  0  0
   59.2984   -6.2403   -8.1775 C   0  0  0  0  0  0  0  0  0  0  0  0
   61.6790   -8.6549   -6.8883 C   0  0  0  0  0  0  0  0  0  0  0  0
   62.0242   -9.3372   -8.0485 C   0  0  0  0  0  0  0  0  0  0  0  0
   62.5627  -10.6075   -8.0254 C   0  0  0  0  0  0  0  0  0  0  0  0
   62.7840  -11.2613   -6.8452 C   0  0  0  0  0  0  0  0  0  0  0  0
   62.4576  -10.6248   -5.6760 C   0  0  0  0  0  0  0  0  0  0  0  0
   61.9118   -9.3347   -5.7163 C   0  0  0  0  0  0  0  0  0  0  0  0
   55.7355   -6.7860   -2.3023 C   0  0  0  0  0  0  0  0  0  0  0  0
   55.9714   -6.5288   -0.9596 C   0  0  0  0  0  0  0  0  0  0  0  0
   54.9617   -6.3439   -0.0390 C   0  0  0  0  0  0  0  0  0  0  0  0
   53.6571   -6.4164   -0.4589 C   0  0  0  0  0  0  0  0  0  0  0  0
   53.3503   -6.6718   -1.7904 C   0  0  0  0  0  0  0  0  0  0  0  0
   54.3979   -6.8483   -2.6705 C   0  0  0  0  0  0  0  0  0  0  0  0
   51.9247   -6.7439   -2.2234 C   0  0  0  0  0  0  0  0  0  0  0  0
   51.1655   -5.4843   -1.9106 C   0  0  0  0  0  0  0  0  0  0  0  0
   51.8421   -6.9766   -3.7229 C   0  0  0  0  0  0  0  0  0  0  0  0
   51.2459   -7.8814   -1.5656 C   0  0  0  0  0  0  0  0  0  0  0  0
   51.6066   -9.0821   -1.7174 O   0  0  0  0  0  0  0  0  0  0  0  0
   50.1619   -7.6234   -0.7429 O   0  0  0  0  0  0  0  0  0  0  0  0
   49.5834   -8.7238   -0.0285 C   0  0  0  0  0  0  0  0  0  0  0  0
   56.3050   -4.4424   -5.6930 O   0  0  0  0  0  0  0  0  0  0  0  0
   56.2115   -4.4970   -6.9409 C   0  0  0  0  0  0  0  0  0  0  0  0
   57.1610   -5.1778   -7.6886 N   0  0  0  0  0  0  0  0  0  0  0  0
   57.1036   -5.2331   -8.7190 H   0  0  0  0  0  0  0  0  0  0  0  0
   55.0900   -3.8348   -7.5844 C   0  0  0  0  0  0  0  0  0  0  0  0
   53.7886   -4.2218   -7.4901 C   0  0  0  0  0  0  0  0  0  0  0  0
   52.7551   -3.5694   -8.1135 C   0  0  0  0  0  0  0  0  0  0  0  0
   53.0484   -2.4438   -8.8917 C   0  0  0  0  0  0  0  0  0  0  0  0
   54.3427   -2.0157   -9.0176 C   0  0  0  0  0  0  0  0  0  0  0  0
   55.3384   -2.6987   -8.3764 C   0  0  0  0  0  0  0  0  0  0  0  0
 33 34  2  0  0  0
 34 35  1  0  0  0
 35  1  1  0  0  0
  1  2  1  0  0  0
  2  3  1  0  0  0
  3  4  1  0  0  0
  4  5  1  0  0  0
  5  6  1  0  0  0
  6  7  1  0  0  0
  7  8  1  0  0  0
  8  9  1  0  0  0
  9 10  1  0  0  0
 10 11  1  0  0  0
 11 12  1  0  0  0
 12 13  2  0  0  0
 11 14  1  0  0  0
 14 15  2  0  0  0
 15 16  1  0  0  0
 16 17  2  0  0  0
 17 18  1  0  0  0
 18 19  2  0  0  0
  5 20  1  0  0  0
 20 21  2  0  0  0
 21 22  1  0  0  0
 22 23  2  0  0  0
 23 24  1  0  0  0
 24 25  2  0  0  0
 24 26  1  0  0  0
 26 27  1  0  0  0
 26 28  1  0  0  0
 26 29  1  0  0  0
 29 30  2  0  0  0
 29 31  1  0  0  0
 31 32  1  0  0  0
 34 37  1  0  0  0
 37 38  2  0  0  0
 38 39  1  0  0  0
 39 40  2  0  0  0
 40 41  1  0  0  0
 41 42  2  0  0  0
 13  1  1  0  0  0
 19 14  1  0  0  0
 25 20  1  0  0  0
 42 37  1  0  0  0
 35 36  1  0  0  0
M  END
> <minimizedAffinity>
1.64587

> <CNNscore>
0.2830846310

> <CNNaffinity>
6.2070174217

> <CNN_VS>
1.7571111917

> <CNNaffinity_variance>
0.5484091640

$$$$
[H]C1=C([H])[C@@]([H])(N([H])C(=O)c2c([H])c([H])c([H])c([H])c2[H])C([H])([H])C([H])([H])C([H])([H])N(c2c([H])c([H])c([H])c(C(C(=O)OC([H])([H])[H])(C([H])([H])[H])C([H])([H])[H])c2[H])C([H])([H])C([H])([H])OC([H])([H])C([H])([H])N1c1c([H])c([H])c([H])c([H])c1[H]


 42 45  0  0  0  0  0  0  0  0999 V2000
   56.7587   -5.3486   -7.8544 C   0  0  0  0  0  0  0  0  0  0  0  0
   56.4312   -6.7783   -7.4623 C   0  0  0  0  0  0  0  0  0  0  0  0
   55.4914   -6.7520   -6.2969 C   0  0  0  0  0  0  0  0  0  0  0  0
   55.8052   -7.8021   -5.2686 C   0  0  0  0  0  0  0  0  0  0  0  0
   56.1736   -7.1768   -3.9967 N   0  0  0  0  0  0  0  0  0  0  0  0
   57.3892   -6.4248   -3.8764 C   0  0  0  0  0  0  0  0  0  0  0  0
   58.6330   -7.1576   -4.2813 C   0  0  0  0  0  0  0  0  0  0  0  0
   59.4618   -6.2221   -4.9402 O   0  0  0  0  0  0  0  0  0  0  0  0
   60.0887   -6.8013   -6.0586 C   0  0  0  0  0  0  0  0  0  0  0  0
   60.1340   -5.8032   -7.1900 C   0  0  0  0  0  0  0  0  0  0  0  0
   59.6828   -6.4077   -8.4361 N   0  0  0  0  0  0  0  0  0  0  0  0
   58.7296   -5.8607   -9.3103 C   0  0  0  0  0  0  0  0  0  0  0  0
   57.5206   -5.4120   -9.1236 C   0  0  0  0  0  0  0  0  0  0  0  0
   60.3511   -7.6459   -8.7256 C   0  0  0  0  0  0  0  0  0  0  0  0
   60.1912   -8.2960   -9.9431 C   0  0  0  0  0  0  0  0  0  0  0  0
   60.8456   -9.4735  -10.2427 C   0  0  0  0  0  0  0  0  0  0  0  0
   61.6916  -10.0616   -9.3442 C   0  0  0  0  0  0  0  0  0  0  0  0
   61.8784   -9.4538   -8.1300 C   0  0  0  0  0  0  0  0  0  0  0  0
   61.2068   -8.2583   -7.8410 C   0  0  0  0  0  0  0  0  0  0  0  0
   55.3057   -7.2881   -2.8718 C   0  0  0  0  0  0  0  0  0  0  0  0
   55.4939   -6.5267   -1.7276 C   0  0  0  0  0  0  0  0  0  0  0  0
   54.6650   -6.6008   -0.6283 C   0  0  0  0  0  0  0  0  0  0  0  0
   53.6001   -7.4661   -0.6552 C   0  0  0  0  0  0  0  0  0  0  0  0
   53.3543   -8.2590   -1.7702 C   0  0  0  0  0  0  0  0  0  0  0  0
   54.2137   -8.1456   -2.8434 C   0  0  0  0  0  0  0  0  0  0  0  0
   52.1893   -9.1906   -1.7768 C   0  0  0  0  0  0  0  0  0  0  0  0
   52.1111  -10.0029   -3.0398 C   0  0  0  0  0  0  0  0  0  0  0  0
   52.2825  -10.1567   -0.6074 C   0  0  0  0  0  0  0  0  0  0  0  0
   50.9275   -8.4349   -1.6212 C   0  0  0  0  0  0  0  0  0  0  0  0
   50.8019   -7.2242   -1.9578 O   0  0  0  0  0  0  0  0  0  0  0  0
   49.8280   -9.0807   -1.0805 O   0  0  0  0  0  0  0  0  0  0  0  0
   49.1089   -8.4191   -0.0312 C   0  0  0  0  0  0  0  0  0  0  0  0
   54.8342   -4.6178   -5.8641 O   0  0  0  0  0  0  0  0  0  0  0  0
   54.5405   -4.4017   -7.0625 C   0  0  0  0  0  0  0  0  0  0  0  0
   55.4294   -4.7308   -8.0752 N   0  0  0  0  0  0  0  0  0  0  0  0
   55.2075   -4.5590   -9.0699 H   0  0  0  0  0  0  0  0  0  0  0  0
   53.2526   -3.8021   -7.3662 C   0  0  0  0  0  0  0  0  0  0  0  0
   52.0899   -4.0607   -6.7078 C   0  0  0  0  0  0  0  0  0  0  0  0
   50.8910   -3.4732   -7.0242 C   0  0  0  0  0  0  0  0  0  0  0  0
   50.8546   -2.5575   -8.0819 C   0  0  0  0  0  0  0  0  0  0  0  0
   51.9983   -2.2648   -8.7750 C   0  0  0  0  0  0  0  0  0  0  0  0
   53.1693   -2.8755   -8.4217 C   0  0  0  0  0  0  0  0  0  0  0  0
 33 34  2  0  0  0
 34 35  1  0  0  0
 35  1  1  0  0  0
  1  2  1  0  0  0
  2  3  1  0  0  0
  3  4  1  0  0  0
  4  5  1  0  0  0
  5  6  1  0  0  0
  6  7  1  0  0  0
  7  8  1  0  0  0
  8  9  1  0  0  0
  9 10  1  0  0  0
 10 11  1  0  0  0
 11 12  1  0  0  0
 12 13  2  0  0  0
 11 14  1  0  0  0
 14 15  2  0  0  0
 15 16  1  0  0  0
 16 17  2  0  0  0
 17 18  1  0  0  0
 18 19  2  0  0  0
  5 20  1  0  0  0
 20 21  2  0  0  0
 21 22  1  0  0  0
 22 23  2  0  0  0
 23 24  1  0  0  0
 24 25  2  0  0  0
 24 26  1  0  0  0
 26 27  1  0  0  0
 26 28  1  0  0  0
 26 29  1  0  0  0
 29 30  2  0  0  0
 29 31  1  0  0  0
 31 32  1  0  0  0
 34 37  1  0  0  0
 37 38  2  0  0  0
 38 39  1  0  0  0
 39 40  2  0  0  0
 40 41  1  0  0  0
 41 42  2  0  0  0
 13  1  1  0  0  0
 19 14  1  0  0  0
 25 20  1  0  0  0
 42 37  1  0  0  0
 35 36  1  0  0  0
M  END
> <minimizedAffinity>
6.55065

> <CNNscore>
0.2496120930

> <CNNaffinity>
6.2285943031

> <CNN_VS>
1.5547324419

> <CNNaffinity_variance>
0.3857956827

$$$$
[H]C1=C([H])[C@@]([H])(N([H])C(=O)c2c([H])c([H])c([H])c([H])c2[H])C([H])([H])C([H])([H])C([H])([H])N(c2c([H])c([H])c([H])c(C(C(=O)OC([H])([H])[H])(C([H])([H])[H])C([H])([H])[H])c2[H])C([H])([H])C([H])([H])OC([H])([H])C([H])([H])N1c1c([H])c([H])c([H])c([H])c1[H]


 42 45  0  0  0  0  0  0  0  0999 V2000
   58.2244   -4.8185   -9.3688 C   0  0  0  0  0  0  0  0  0  0  0  0
   58.2924   -6.1551  -10.0858 C   0  0  0  0  0  0  0  0  0  0  0  0
   59.3351   -7.0013   -9.4236 C   0  0  0  0  0  0  0  0  0  0  0  0
   60.1651   -7.7811  -10.4043 C   0  0  0  0  0  0  0  0  0  0  0  0
   61.5664   -7.3614  -10.3340 N   0  0  0  0  0  0  0  0  0  0  0  0
   61.9585   -6.0479  -10.7565 C   0  0  0  0  0  0  0  0  0  0  0  0
   61.5508   -5.6804  -12.1517 C   0  0  0  0  0  0  0  0  0  0  0  0
   61.1785   -4.3177  -12.1228 O   0  0  0  0  0  0  0  0  0  0  0  0
   60.0405   -4.0873  -12.9172 C   0  0  0  0  0  0  0  0  0  0  0  0
   59.1376   -3.0886  -12.2349 C   0  0  0  0  0  0  0  0  0  0  0  0
   57.7569   -3.5527  -12.2305 N   0  0  0  0  0  0  0  0  0  0  0  0
   56.9116   -3.5890  -11.1098 C   0  0  0  0  0  0  0  0  0  0  0  0
   57.0546   -4.0928   -9.9167 C   0  0  0  0  0  0  0  0  0  0  0  0
   57.3024   -3.9529  -13.5332 C   0  0  0  0  0  0  0  0  0  0  0  0
   56.4029   -4.9978  -13.7049 C   0  0  0  0  0  0  0  0  0  0  0  0
   55.9403   -5.3768  -14.9486 C   0  0  0  0  0  0  0  0  0  0  0  0
   56.3510   -4.7336  -16.0829 C   0  0  0  0  0  0  0  0  0  0  0  0
   57.2386   -3.6965  -15.9594 C   0  0  0  0  0  0  0  0  0  0  0  0
   57.6988   -3.3236  -14.6893 C   0  0  0  0  0  0  0  0  0  0  0  0
   62.5502   -8.2519   -9.8145 C   0  0  0  0  0  0  0  0  0  0  0  0
   63.3332   -9.0389  -10.6463 C   0  0  0  0  0  0  0  0  0  0  0  0
   64.3023   -9.8999  -10.1764 C   0  0  0  0  0  0  0  0  0  0  0  0
   64.5108   -9.9919   -8.8231 C   0  0  0  0  0  0  0  0  0  0  0  0
   63.7604   -9.2319   -7.9332 C   0  0  0  0  0  0  0  0  0  0  0  0
   62.8043   -8.3858   -8.4557 C   0  0  0  0  0  0  0  0  0  0  0  0
   64.0067   -9.3477   -6.4665 C   0  0  0  0  0  0  0  0  0  0  0  0
   62.7887   -9.8085   -5.7147 C   0  0  0  0  0  0  0  0  0  0  0  0
   65.1233  -10.3430   -6.1982 C   0  0  0  0  0  0  0  0  0  0  0  0
   64.4388   -8.0453   -5.9148 C   0  0  0  0  0  0  0  0  0  0  0  0
   65.4665   -7.4317   -6.3175 O   0  0  0  0  0  0  0  0  0  0  0  0
   63.6845   -7.4665   -4.9077 O   0  0  0  0  0  0  0  0  0  0  0  0
   64.3446   -7.1372   -3.6782 C   0  0  0  0  0  0  0  0  0  0  0  0
   55.7010   -5.1280   -8.0516 O   0  0  0  0  0  0  0  0  0  0  0  0
   56.7368   -5.3220   -7.3745 C   0  0  0  0  0  0  0  0  0  0  0  0
   57.9905   -5.1901   -7.9529 N   0  0  0  0  0  0  0  0  0  0  0  0
   58.8574   -5.3477   -7.4127 H   0  0  0  0  0  0  0  0  0  0  0  0
   56.5955   -5.6857   -5.9751 C   0  0  0  0  0  0  0  0  0  0  0  0
   57.1969   -6.7485   -5.3742 C   0  0  0  0  0  0  0  0  0  0  0  0
   57.0391   -7.0602   -4.0474 C   0  0  0  0  0  0  0  0  0  0  0  0
   56.2146   -6.2452   -3.2633 C   0  0  0  0  0  0  0  0  0  0  0  0
   55.5873   -5.1645   -3.8226 C   0  0  0  0  0  0  0  0  0  0  0  0
   55.7763   -4.8941   -5.1493 C   0  0  0  0  0  0  0  0  0  0  0  0
 33 34  2  0  0  0
 34 35  1  0  0  0
 35  1  1  0  0  0
  1  2  1  0  0  0
  2  3  1  0  0  0
  3  4  1  0  0  0
  4  5  1  0  0  0
  5  6  1  0  0  0
  6  7  1  0  0  0
  7  8  1  0  0  0
  8  9  1  0  0  0
  9 10  1  0  0  0
 10 11  1  0  0  0
 11 12  1  0  0  0
 12 13  2  0  0  0
 11 14  1  0  0  0
 14 15  2  0  0  0
 15 16  1  0  0  0
 16 17  2  0  0  0
 17 18  1  0  0  0
 18 19  2  0  0  0
  5 20  1  0  0  0
 20 21  2  0  0  0
 21 22  1  0  0  0
 22 23  2  0  0  0
 23 24  1  0  0  0
 24 25  2  0  0  0
 24 26  1  0  0  0
 26 27  1  0  0  0
 26 28  1  0  0  0
 26 29  1  0  0  0
 29 30  2  0  0  0
 29 31  1  0  0  0
 31 32  1  0  0  0
 34 37  1  0  0  0
 37 38  2  0  0  0
 38 39  1  0  0  0
 39 40  2  0  0  0
 40 41  1  0  0  0
 41 42  2  0  0  0
 13  1  1  0  0  0
 19 14  1  0  0  0
 25 20  1  0  0  0
 42 37  1  0  0  0
 35 36  1  0  0  0
M  END
> <minimizedAffinity>
-1.57005

> <CNNscore>
0.2286329865

> <CNNaffinity>
5.7560744286

> <CNN_VS>
1.3160284758

> <CNNaffinity_variance>
0.0381173417

$$$$
[H]C1=C([H])[C@@]([H])(N([H])C(=O)c2c([H])c([H])c([H])c([H])c2[H])C([H])([H])C([H])([H])C([H])([H])N(c2c([H])c([H])c([H])c(C(C(=O)OC([H])([H])[H])(C([H])([H])[H])C([H])([H])[H])c2[H])C([H])([H])C([H])([H])OC([H])([H])C([H])([H])N1c1c([H])c([H])c([H])c([H])c1[H]


 42 45  0  0  0  0  0  0  0  0999 V2000
   57.7445   -7.2522   -5.6295 C   0  0  0  0  0  0  0  0  0  0  0  0
   57.6311   -5.7470   -5.7923 C   0  0  0  0  0  0  0  0  0  0  0  0
   56.3124   -5.4320   -6.4277 C   0  0  0  0  0  0  0  0  0  0  0  0
   56.4043   -4.3392   -7.4553 C   0  0  0  0  0  0  0  0  0  0  0  0
   56.0457   -4.8522   -8.7792 N   0  0  0  0  0  0  0  0  0  0  0  0
   56.8829   -5.8084   -9.4443 C   0  0  0  0  0  0  0  0  0  0  0  0
   58.3161   -5.3976   -9.6026 C   0  0  0  0  0  0  0  0  0  0  0  0
   59.0977   -6.5578   -9.4042 O   0  0  0  0  0  0  0  0  0  0  0  0
   60.2532   -6.2674   -8.6562 C   0  0  0  0  0  0  0  0  0  0  0  0
   60.5316   -7.3947   -7.6918 C   0  0  0  0  0  0  0  0  0  0  0  0
   60.8017   -6.8821   -6.3554 N   0  0  0  0  0  0  0  0  0  0  0  0
   60.2037   -7.3389   -5.1697 C   0  0  0  0  0  0  0  0  0  0  0  0
   58.9597   -7.5095   -4.8217 C   0  0  0  0  0  0  0  0  0  0  0  0
   61.8016   -5.8508   -6.3488 C   0  0  0  0  0  0  0  0  0  0  0  0
   61.6951   -4.7236   -7.1543 C   0  0  0  0  0  0  0  0  0  0  0  0
   62.6364   -3.7147   -7.1402 C   0  0  0  0  0  0  0  0  0  0  0  0
   63.7306   -3.7786   -6.3231 C   0  0  0  0  0  0  0  0  0  0  0  0
   63.8754   -4.8737   -5.5116 C   0  0  0  0  0  0  0  0  0  0  0  0
   62.9106   -5.8897   -5.5374 C   0  0  0  0  0  0  0  0  0  0  0  0
   54.8396   -4.4232   -9.4054 C   0  0  0  0  0  0  0  0  0  0  0  0
   54.6470   -4.5409  -10.7741 C   0  0  0  0  0  0  0  0  0  0  0  0
   53.4874   -4.1483  -11.4084 C   0  0  0  0  0  0  0  0  0  0  0  0
   52.4685   -3.6132  -10.6608 C   0  0  0  0  0  0  0  0  0  0  0  0
   52.5960   -3.4663   -9.2843 C   0  0  0  0  0  0  0  0  0  0  0  0
   53.7764   -3.8757   -8.6993 C   0  0  0  0  0  0  0  0  0  0  0  0
   51.4739   -2.8839   -8.4925 C   0  0  0  0  0  0  0  0  0  0  0  0
   50.5840   -2.0004   -9.3223 C   0  0  0  0  0  0  0  0  0  0  0  0
   50.6140   -3.9915   -7.9067 C   0  0  0  0  0  0  0  0  0  0  0  0
   52.0020   -2.0935   -7.3595 C   0  0  0  0  0  0  0  0  0  0  0  0
   52.7513   -1.0880   -7.5090 O   0  0  0  0  0  0  0  0  0  0  0  0
   51.6622   -2.4698   -6.0706 O   0  0  0  0  0  0  0  0  0  0  0  0
   50.6950   -1.6751   -5.3714 C   0  0  0  0  0  0  0  0  0  0  0  0
   57.1119   -6.5450   -2.9279 O   0  0  0  0  0  0  0  0  0  0  0  0
   56.2810   -7.2414   -3.5554 C   0  0  0  0  0  0  0  0  0  0  0  0
   56.5260   -7.6168   -4.8680 N   0  0  0  0  0  0  0  0  0  0  0  0
   55.8528   -8.1891   -5.4041 H   0  0  0  0  0  0  0  0  0  0  0  0
   55.0604   -7.6460   -2.8793 C   0  0  0  0  0  0  0  0  0  0  0  0
   54.8878   -8.8121   -2.1991 C   0  0  0  0  0  0  0  0  0  0  0  0
   53.7178   -9.1595   -1.5721 C   0  0  0  0  0  0  0  0  0  0  0  0
   52.6383   -8.2709   -1.6325 C   0  0  0  0  0  0  0  0  0  0  0  0
   52.7631   -7.0854   -2.3056 C   0  0  0  0  0  0  0  0  0  0  0  0
   53.9496   -6.7833   -2.9139 C   0  0  0  0  0  0  0  0  0  0  0  0
 33 34  2  0  0  0
 34 35  1  0  0  0
 35  1  1  0  0  0
  1  2  1  0  0  0
  2  3  1  0  0  0
  3  4  1  0  0  0
  4  5  1  0  0  0
  5  6  1  0  0  0
  6  7  1  0  0  0
  7  8  1  0  0  0
  8  9  1  0  0  0
  9 10  1  0  0  0
 10 11  1  0  0  0
 11 12  1  0  0  0
 12 13  2  0  0  0
 11 14  1  0  0  0
 14 15  2  0  0  0
 15 16  1  0  0  0
 16 17  2  0  0  0
 17 18  1  0  0  0
 18 19  2  0  0  0
  5 20  1  0  0  0
 20 21  2  0  0  0
 21 22  1  0  0  0
 22 23  2  0  0  0
 23 24  1  0  0  0
 24 25  2  0  0  0
 24 26  1  0  0  0
 26 27  1  0  0  0
 26 28  1  0  0  0
 26 29  1  0  0  0
 29 30  2  0  0  0
 29 31  1  0  0  0
 31 32  1  0  0  0
 34 37  1  0  0  0
 37 38  2  0  0  0
 38 39  1  0  0  0
 39 40  2  0  0  0
 40 41  1  0  0  0
 41 42  2  0  0  0
 13  1  1  0  0  0
 19 14  1  0  0  0
 25 20  1  0  0  0
 42 37  1  0  0  0
 35 36  1  0  0  0
M  END
> <minimizedAffinity>
38.73442

> <CNNscore>
0.2251483649

> <CNNaffinity>
5.8949360847

> <CNN_VS>
1.3272352219

> <CNNaffinity_variance>
0.6655189991

$$$$
[H]C1=C([H])[C@@]([H])(N([H])C(=O)c2c([H])c([H])c([H])c([H])c2[H])C([H])([H])C([H])([H])C([H])([H])N(c2c([H])c([H])c([H])c(C(C(=O)OC([H])([H])[H])(C([H])([H])[H])C([H])([H])[H])c2[H])C([H])([H])C([H])([H])OC([H])([H])C([H])([H])N1c1c([H])c([H])c([H])c([H])c1[H]


 42 45  0  0  0  0  0  0  0  0999 V2000
   58.5822   -5.1942   -8.9072 C   0  0  0  0  0  0  0  0  0  0  0  0
   57.6085   -5.9166   -9.8211 C   0  0  0  0  0  0  0  0  0  0  0  0
   57.9518   -5.5893  -11.2413 C   0  0  0  0  0  0  0  0  0  0  0  0
   56.7387   -5.3632  -12.0991 C   0  0  0  0  0  0  0  0  0  0  0  0
   56.7164   -3.9868  -12.5988 N   0  0  0  0  0  0  0  0  0  0  0  0
   56.5210   -2.8857  -11.7004 C   0  0  0  0  0  0  0  0  0  0  0  0
   55.2900   -2.9706  -10.8487 C   0  0  0  0  0  0  0  0  0  0  0  0
   55.6384   -2.4650   -9.5761 O   0  0  0  0  0  0  0  0  0  0  0  0
   55.0548   -3.2310   -8.5505 C   0  0  0  0  0  0  0  0  0  0  0  0
   56.0311   -3.3808   -7.4091 C   0  0  0  0  0  0  0  0  0  0  0  0
   56.1144   -4.7683   -6.9737 N   0  0  0  0  0  0  0  0  0  0  0  0
   57.3015   -5.4922   -6.7771 C   0  0  0  0  0  0  0  0  0  0  0  0
   58.3417   -5.6975   -7.5346 C   0  0  0  0  0  0  0  0  0  0  0  0
   54.8250   -5.3468   -6.7160 C   0  0  0  0  0  0  0  0  0  0  0  0
   54.3618   -5.5545   -5.4226 C   0  0  0  0  0  0  0  0  0  0  0  0
   53.1160   -6.0874   -5.1613 C   0  0  0  0  0  0  0  0  0  0  0  0
   52.2699   -6.4400   -6.1756 C   0  0  0  0  0  0  0  0  0  0  0  0
   52.6869   -6.2523   -7.4677 C   0  0  0  0  0  0  0  0  0  0  0  0
   53.9549   -5.7097   -7.7165 C   0  0  0  0  0  0  0  0  0  0  0  0
   56.9196   -3.7304  -13.9858 C   0  0  0  0  0  0  0  0  0  0  0  0
   55.8554   -3.5600  -14.8592 C   0  0  0  0  0  0  0  0  0  0  0  0
   56.0179   -3.2974  -16.2030 C   0  0  0  0  0  0  0  0  0  0  0  0
   57.2883   -3.1985  -16.7126 C   0  0  0  0  0  0  0  0  0  0  0  0
   58.3994   -3.3592  -15.8928 C   0  0  0  0  0  0  0  0  0  0  0  0
   58.1812   -3.6197  -14.5557 C   0  0  0  0  0  0  0  0  0  0  0  0
   59.7705   -3.2451  -16.4693 C   0  0  0  0  0  0  0  0  0  0  0  0
   60.0709   -4.3392  -17.4561 C   0  0  0  0  0  0  0  0  0  0  0  0
   59.9298   -1.9149  -17.1866 C   0  0  0  0  0  0  0  0  0  0  0  0
   60.7843   -3.2868  -15.3933 C   0  0  0  0  0  0  0  0  0  0  0  0
   61.1261   -2.2699  -14.7270 O   0  0  0  0  0  0  0  0  0  0  0  0
   61.3916   -4.4962  -15.0982 O   0  0  0  0  0  0  0  0  0  0  0  0
   62.0651   -4.6203  -13.8386 C   0  0  0  0  0  0  0  0  0  0  0  0
   60.5574   -6.6830   -7.4647 O   0  0  0  0  0  0  0  0  0  0  0  0
   60.8267   -6.3499   -8.6418 C   0  0  0  0  0  0  0  0  0  0  0  0
   59.9124   -5.6292   -9.3958 N   0  0  0  0  0  0  0  0  0  0  0  0
   60.1140   -5.3465  -10.3693 H   0  0  0  0  0  0  0  0  0  0  0  0
   62.1136   -6.7333   -9.1964 C   0  0  0  0  0  0  0  0  0  0  0  0
   63.2042   -7.1023   -8.4708 C   0  0  0  0  0  0  0  0  0  0  0  0
   64.4046   -7.4586   -9.0317 C   0  0  0  0  0  0  0  0  0  0  0  0
   64.5210   -7.4427  -10.4263 C   0  0  0  0  0  0  0  0  0  0  0  0
   63.4517   -7.0780  -11.1994 C   0  0  0  0  0  0  0  0  0  0  0  0
   62.2758   -6.7319  -10.5940 C   0  0  0  0  0  0  0  0  0  0  0  0
 33 34  2  0  0  0
 34 35  1  0  0  0
 35  1  1  0  0  0
  1  2  1  0  0  0
  2  3  1  0  0  0
  3  4  1  0  0  0
  4  5  1  0  0  0
  5  6  1  0  0  0
  6  7  1  0  0  0
  7  8  1  0  0  0
  8  9  1  0  0  0
  9 10  1  0  0  0
 10 11  1  0  0  0
 11 12  1  0  0  0
 12 13  2  0  0  0
 11 14  1  0  0  0
 14 15  2  0  0  0
 15 16  1  0  0  0
 16 17  2  0  0  0
 17 18  1  0  0  0
 18 19  2  0  0  0
  5 20  1  0  0  0
 20 21  2  0  0  0
 21 22  1  0  0  0
 22 23  2  0  0  0
 23 24  1  0  0  0
 24 25  2  0  0  0
 24 26  1  0  0  0
 26 27  1  0  0  0
 26 28  1  0  0  0
 26 29  1  0  0  0
 29 30  2  0  0  0
 29 31  1  0  0  0
 31 32  1  0  0  0
 34 37  1  0  0  0
 37 38  2  0  0  0
 38 39  1  0  0  0
 39 40  2  0  0  0
 40 41  1  0  0  0
 41 42  2  0  0  0
 13  1  1  0  0  0
 19 14  1  0  0  0
 25 20  1  0  0  0
 42 37  1  0  0  0
 35 36  1  0  0  0
M  END
> <minimizedAffinity>
-2.33208

> <CNNscore>
0.2199508697

> <CNNaffinity>
5.9086866379

> <CNN_VS>
1.2996207476

> <CNNaffinity_variance>
0.0731555298

$$$$
[H]C1=C([H])[C@@]([H])(N([H])C(=O)c2c([H])c([H])c([H])c([H])c2[H])C([H])([H])C([H])([H])C([H])([H])N(c2c([H])c([H])c([H])c(C(C(=O)OC([H])([H])[H])(C([H])([H])[H])C([H])([H])[H])c2[H])C([H])([H])C([H])([H])OC([H])([H])C([H])([H])N1c1c([H])c([H])c([H])c([H])c1[H]


 42 45  0  0  0  0  0  0  0  0999 V2000
   53.5257   -5.7158   -1.9509 C   0  0  0  0  0  0  0  0  0  0  0  0
   54.1775   -4.9624   -3.0966 C   0  0  0  0  0  0  0  0  0  0  0  0
   53.5195   -5.3747   -4.3767 C   0  0  0  0  0  0  0  0  0  0  0  0
   54.4949   -5.5460   -5.5071 C   0  0  0  0  0  0  0  0  0  0  0  0
   54.5059   -6.9370   -5.9652 N   0  0  0  0  0  0  0  0  0  0  0  0
   55.0097   -7.9811   -5.1204 C   0  0  0  0  0  0  0  0  0  0  0  0
   56.4027   -7.7684   -4.6083 C   0  0  0  0  0  0  0  0  0  0  0  0
   56.4257   -8.2438   -3.2780 O   0  0  0  0  0  0  0  0  0  0  0  0
   57.1809   -7.3935   -2.4499 C   0  0  0  0  0  0  0  0  0  0  0  0
   56.5110   -7.2684   -1.1031 C   0  0  0  0  0  0  0  0  0  0  0  0
   56.4241   -5.8737   -0.6922 N   0  0  0  0  0  0  0  0  0  0  0  0
   55.2676   -5.2326   -0.2193 C   0  0  0  0  0  0  0  0  0  0  0  0
   54.0582   -5.1379   -0.6947 C   0  0  0  0  0  0  0  0  0  0  0  0
   57.6845   -5.1901   -0.7806 C   0  0  0  0  0  0  0  0  0  0  0  0
   57.9154   -3.9927   -0.1147 C   0  0  0  0  0  0  0  0  0  0  0  0
   59.1289   -3.3381   -0.1724 C   0  0  0  0  0  0  0  0  0  0  0  0
   60.1725   -3.8439   -0.8963 C   0  0  0  0  0  0  0  0  0  0  0  0
   59.9881   -5.0237   -1.5693 C   0  0  0  0  0  0  0  0  0  0  0  0
   58.7499   -5.6763   -1.5006 C   0  0  0  0  0  0  0  0  0  0  0  0
   53.9855   -7.2667   -7.2502 C   0  0  0  0  0  0  0  0  0  0  0  0
   53.8552   -8.5830   -7.6681 C   0  0  0  0  0  0  0  0  0  0  0  0
   53.3431   -8.9357   -8.8988 C   0  0  0  0  0  0  0  0  0  0  0  0
   52.9405   -7.9462   -9.7603 C   0  0  0  0  0  0  0  0  0  0  0  0
   53.0442   -6.6063   -9.4047 C   0  0  0  0  0  0  0  0  0  0  0  0
   53.5628   -6.3079   -8.1616 C   0  0  0  0  0  0  0  0  0  0  0  0
   52.5982   -5.5485  -10.3573 C   0  0  0  0  0  0  0  0  0  0  0  0
   53.5449   -5.3812  -11.5135 C   0  0  0  0  0  0  0  0  0  0  0  0
   51.2302   -5.8931  -10.9222 C   0  0  0  0  0  0  0  0  0  0  0  0
   52.4697   -4.2509   -9.6592 C   0  0  0  0  0  0  0  0  0  0  0  0
   53.0038   -3.1859  -10.0780 O   0  0  0  0  0  0  0  0  0  0  0  0
   51.7300   -4.1954   -8.4896 O   0  0  0  0  0  0  0  0  0  0  0  0
   50.5252   -3.4181   -8.4927 C   0  0  0  0  0  0  0  0  0  0  0  0
   52.3535   -3.6698   -3.5752 O   0  0  0  0  0  0  0  0  0  0  0  0
   51.5808   -4.3921   -2.9043 C   0  0  0  0  0  0  0  0  0  0  0  0
   52.0843   -5.4025   -2.0984 N   0  0  0  0  0  0  0  0  0  0  0  0
   51.4641   -6.0110   -1.5387 H   0  0  0  0  0  0  0  0  0  0  0  0
   50.1512   -4.1478   -2.9886 C   0  0  0  0  0  0  0  0  0  0  0  0
   49.2206   -4.6146   -2.1120 C   0  0  0  0  0  0  0  0  0  0  0  0
   47.8767   -4.3620   -2.2249 C   0  0  0  0  0  0  0  0  0  0  0  0
   47.4315   -3.5830   -3.2990 C   0  0  0  0  0  0  0  0  0  0  0  0
   48.3295   -3.0910   -4.2076 C   0  0  0  0  0  0  0  0  0  0  0  0
   49.6590   -3.3693   -4.0522 C   0  0  0  0  0  0  0  0  0  0  0  0
 33 34  2  0  0  0
 34 35  1  0  0  0
 35  1  1  0  0  0
  1  2  1  0  0  0
  2  3  1  0  0  0
  3  4  1  0  0  0
  4  5  1  0  0  0
  5  6  1  0  0  0
  6  7  1  0  0  0
  7  8  1  0  0  0
  8  9  1  0  0  0
  9 10  1  0  0  0
 10 11  1  0  0  0
 11 12  1  0  0  0
 12 13  2  0  0  0
 11 14  1  0  0  0
 14 15  2  0  0  0
 15 16  1  0  0  0
 16 17  2  0  0  0
 17 18  1  0  0  0
 18 19  2  0  0  0
  5 20  1  0  0  0
 20 21  2  0  0  0
 21 22  1  0  0  0
 22 23  2  0  0  0
 23 24  1  0  0  0
 24 25  2  0  0  0
 24 26  1  0  0  0
 26 27  1  0  0  0
 26 28  1  0  0  0
 26 29  1  0  0  0
 29 30  2  0  0  0
 29 31  1  0  0  0
 31 32  1  0  0  0
 34 37  1  0  0  0
 37 38  2  0  0  0
 38 39  1  0  0  0
 39 40  2  0  0  0
 40 41  1  0  0  0
 41 42  2  0  0  0
 13  1  1  0  0  0
 19 14  1  0  0  0
 25 20  1  0  0  0
 42 37  1  0  0  0
 35 36  1  0  0  0
M  END
> <minimizedAffinity>
43.30216

> <CNNscore>
0.2102936655

> <CNNaffinity>
6.0952901840

> <CNN_VS>
1.2818008661

> <CNNaffinity_variance>
0.4162494540

$$$$
[H]OC([H])([H])[C@@]1([H])O[C@@]([H])(n2c([H])nc3c(N([H])C([H])([H])C4([H])C([H])([H])C4([H])[H])nc([H])nc32)[C@]([H])(O[H])[C@]1([H])O[H]


 27 30  0  0  0  0  0  0  0  0999 V2000
   59.4513   -5.8137   -9.4799 N   0  0  0  0  0  0  0  0  0  0  0  0
   58.8428   -5.7155   -8.2856 C   0  0  0  0  0  0  0  0  0  0  0  0
   57.6936   -5.0092   -8.3957 N   0  0  0  0  0  0  0  0  0  0  0  0
   57.5559   -4.6483   -9.6645 C   0  0  0  0  0  0  0  0  0  0  0  0
   56.5492   -3.9103  -10.3033 C   0  0  0  0  0  0  0  0  0  0  0  0
   56.7357   -3.7309  -11.6214 N   0  0  0  0  0  0  0  0  0  0  0  0
   57.7979   -4.2136  -12.2920 C   0  0  0  0  0  0  0  0  0  0  0  0
   58.7606   -4.9210  -11.6733 N   0  0  0  0  0  0  0  0  0  0  0  0
   58.6497   -5.1478  -10.3444 C   0  0  0  0  0  0  0  0  0  0  0  0
   61.5099   -8.4903   -9.1840 C   0  0  0  0  0  0  0  0  0  0  0  0
   60.4566   -7.8547   -9.8083 O   0  0  0  0  0  0  0  0  0  0  0  0
   60.6917   -6.4902   -9.7498 C   0  0  0  0  0  0  0  0  0  0  0  0
   61.7015   -6.2242   -8.6939 C   0  0  0  0  0  0  0  0  0  0  0  0
   62.9551   -5.8835   -9.2072 O   0  0  0  0  0  0  0  0  0  0  0  0
   61.8395   -7.5747   -8.0243 C   0  0  0  0  0  0  0  0  0  0  0  0
   63.1345   -7.7768   -7.5562 O   0  0  0  0  0  0  0  0  0  0  0  0
   62.9389   -5.1020   -9.7865 H   0  0  0  0  0  0  0  0  0  0  0  0
   63.0415   -8.3228   -6.7174 H   0  0  0  0  0  0  0  0  0  0  0  0
   61.0459   -9.8053   -7.2907 O   0  0  0  0  0  0  0  0  0  0  0  0
   61.1370   -9.8719   -8.6918 C   0  0  0  0  0  0  0  0  0  0  0  0
   61.8921   -9.4198   -6.9074 H   0  0  0  0  0  0  0  0  0  0  0  0
   55.4342   -3.4138   -9.5869 N   0  0  0  0  0  0  0  0  0  0  0  0
   55.4365   -2.4239   -9.2724 H   0  0  0  0  0  0  0  0  0  0  0  0
   54.3240   -4.2630   -9.3019 C   0  0  0  0  0  0  0  0  0  0  0  0
   53.9612   -4.3965   -7.8568 C   0  0  0  0  0  0  0  0  0  0  0  0
   52.4654   -4.1799   -7.6031 C   0  0  0  0  0  0  0  0  0  0  0  0
   53.0898   -5.5360   -7.4510 C   0  0  0  0  0  0  0  0  0  0  0  0
 19 20  1  0  0  0
 20 10  1  0  0  0
 10 11  1  0  0  0
 11 12  1  0  0  0
 12 13  1  0  0  0
 13 14  1  0  0  0
 13 15  1  0  0  0
 15 16  1  0  0  0
 12  1  1  0  0  0
  1  2  1  0  0  0
  2  3  2  0  0  0
  3  4  1  0  0  0
  4  5  2  0  0  0
  5 22  1  0  0  0
 22 24  1  0  0  0
 24 25  1  0  0  0
 25 26  1  0  0  0
 26 27  1  0  0  0
  5  6  1  0  0  0
  6  7  2  0  0  0
  7  8  1  0  0  0
  8  9  2  0  0  0
 15 10  1  0  0  0
  9  1  1  0  0  0
  9  4  1  0  0  0
 27 25  1  0  0  0
 19 21  1  0  0  0
 14 17  1  0  0  0
 16 18  1  0  0  0
 22 23  1  0  0  0
M  END
> <minimizedAffinity>
-6.50697

> <CNNscore>
0.5197882652

> <CNNaffinity>
4.7383236885

> <CNN_VS>
2.4629249573

> <CNNaffinity_variance>
0.1663639247

$$$$
[H]OC([H])([H])[C@@]1([H])O[C@@]([H])(n2c([H])nc3c(N([H])C([H])([H])C4([H])C([H])([H])C4([H])[H])nc([H])nc32)[C@]([H])(O[H])[C@]1([H])O[H]


 27 30  0  0  0  0  0  0  0  0999 V2000
   55.6336   -5.5523   -6.4765 N   0  0  0  0  0  0  0  0  0  0  0  0
   56.8985   -5.6359   -6.9230 C   0  0  0  0  0  0  0  0  0  0  0  0
   57.0085   -5.0652   -8.1452 N   0  0  0  0  0  0  0  0  0  0  0  0
   55.8123   -4.6100   -8.4926 C   0  0  0  0  0  0  0  0  0  0  0  0
   55.3862   -3.9429   -9.6500 C   0  0  0  0  0  0  0  0  0  0  0  0
   54.0815   -3.6240   -9.6656 N   0  0  0  0  0  0  0  0  0  0  0  0
   53.2358   -3.9137   -8.6597 C   0  0  0  0  0  0  0  0  0  0  0  0
   53.6506   -4.5540   -7.5517 N   0  0  0  0  0  0  0  0  0  0  0  0
   54.9516   -4.9115   -7.4550 C   0  0  0  0  0  0  0  0  0  0  0  0
   55.7744   -5.7662   -3.0966 C   0  0  0  0  0  0  0  0  0  0  0  0
   55.3766   -5.1002   -4.2374 O   0  0  0  0  0  0  0  0  0  0  0  0
   55.1404   -6.0487   -5.2197 C   0  0  0  0  0  0  0  0  0  0  0  0
   55.8095   -7.3162   -4.8310 C   0  0  0  0  0  0  0  0  0  0  0  0
   54.9146   -8.3014   -4.4073 O   0  0  0  0  0  0  0  0  0  0  0  0
   56.6264   -6.8998   -3.6265 C   0  0  0  0  0  0  0  0  0  0  0  0
   56.7369   -7.9388   -2.7071 O   0  0  0  0  0  0  0  0  0  0  0  0
   54.2427   -8.5288   -5.0731 H   0  0  0  0  0  0  0  0  0  0  0  0
   57.6460   -7.8409   -2.2896 H   0  0  0  0  0  0  0  0  0  0  0  0
   56.6757   -3.6186   -2.7723 O   0  0  0  0  0  0  0  0  0  0  0  0
   56.5728   -4.8815   -2.1637 C   0  0  0  0  0  0  0  0  0  0  0  0
   57.0427   -3.7129   -3.7039 H   0  0  0  0  0  0  0  0  0  0  0  0
   56.2879   -3.6390  -10.6977 N   0  0  0  0  0  0  0  0  0  0  0  0
   57.2585   -3.3541  -10.4616 H   0  0  0  0  0  0  0  0  0  0  0  0
   55.8674   -3.7236  -12.0582 C   0  0  0  0  0  0  0  0  0  0  0  0
   56.8018   -4.4349  -12.9849 C   0  0  0  0  0  0  0  0  0  0  0  0
   56.1281   -4.8461  -14.2985 C   0  0  0  0  0  0  0  0  0  0  0  0
   57.1695   -3.7661  -14.2654 C   0  0  0  0  0  0  0  0  0  0  0  0
 19 20  1  0  0  0
 20 10  1  0  0  0
 10 11  1  0  0  0
 11 12  1  0  0  0
 12 13  1  0  0  0
 13 14  1  0  0  0
 13 15  1  0  0  0
 15 16  1  0  0  0
 12  1  1  0  0  0
  1  2  1  0  0  0
  2  3  2  0  0  0
  3  4  1  0  0  0
  4  5  2  0  0  0
  5 22  1  0  0  0
 22 24  1  0  0  0
 24 25  1  0  0  0
 25 26  1  0  0  0
 26 27  1  0  0  0
  5  6  1  0  0  0
  6  7  2  0  0  0
  7  8  1  0  0  0
  8  9  2  0  0  0
 15 10  1  0  0  0
  9  1  1  0  0  0
  9  4  1  0  0  0
 27 25  1  0  0  0
 19 21  1  0  0  0
 14 17  1  0  0  0
 16 18  1  0  0  0
 22 23  1  0  0  0
M  END
> <minimizedAffinity>
-6.88979

> <CNNscore>
0.4424622357

> <CNNaffinity>
5.0637764931

> <CNN_VS>
2.2405297756

> <CNNaffinity_variance>
0.3347776532

$$$$
[H]OC([H])([H])[C@@]1([H])O[C@@]([H])(n2c([H])nc3c(N([H])C([H])([H])C4([H])C([H])([H])C4([H])[H])nc([H])nc32)[C@]([H])(O[H])[C@]1([H])O[H]


 27 30  0  0  0  0  0  0  0  0999 V2000
   54.8932   -6.5088   -5.9465 N   0  0  0  0  0  0  0  0  0  0  0  0
   53.5527   -6.4994   -5.8502 C   0  0  0  0  0  0  0  0  0  0  0  0
   53.0197   -5.6276   -6.7376 N   0  0  0  0  0  0  0  0  0  0  0  0
   54.0167   -5.0700   -7.4115 C   0  0  0  0  0  0  0  0  0  0  0  0
   54.0081   -4.1107   -8.4340 C   0  0  0  0  0  0  0  0  0  0  0  0
   55.2233   -3.7699   -8.8939 N   0  0  0  0  0  0  0  0  0  0  0  0
   56.3684   -4.2968   -8.4227 C   0  0  0  0  0  0  0  0  0  0  0  0
   56.3701   -5.2170   -7.4414 N   0  0  0  0  0  0  0  0  0  0  0  0
   55.1870   -5.6165   -6.9215 C   0  0  0  0  0  0  0  0  0  0  0  0
   55.9375   -7.7908   -2.9875 C   0  0  0  0  0  0  0  0  0  0  0  0
   55.1072   -7.8445   -4.0879 O   0  0  0  0  0  0  0  0  0  0  0  0
   55.7968   -7.3092   -5.1642 C   0  0  0  0  0  0  0  0  0  0  0  0
   56.9354   -6.5060   -4.6505 C   0  0  0  0  0  0  0  0  0  0  0  0
   58.1733   -7.1238   -4.8425 O   0  0  0  0  0  0  0  0  0  0  0  0
   56.6709   -6.4777   -3.1603 C   0  0  0  0  0  0  0  0  0  0  0  0
   57.8593   -6.4486   -2.4366 O   0  0  0  0  0  0  0  0  0  0  0  0
   58.3669   -7.3255   -5.7743 H   0  0  0  0  0  0  0  0  0  0  0  0
   57.6690   -5.8977   -1.6177 H   0  0  0  0  0  0  0  0  0  0  0  0
   56.1086   -7.7547   -0.6426 O   0  0  0  0  0  0  0  0  0  0  0  0
   55.1673   -7.8113   -1.6850 C   0  0  0  0  0  0  0  0  0  0  0  0
   56.7933   -8.4826   -0.7555 H   0  0  0  0  0  0  0  0  0  0  0  0
   52.7958   -3.5694   -8.9244 N   0  0  0  0  0  0  0  0  0  0  0  0
   52.4726   -3.8351   -9.8751 H   0  0  0  0  0  0  0  0  0  0  0  0
   52.0303   -2.6718   -8.1224 C   0  0  0  0  0  0  0  0  0  0  0  0
   50.6405   -3.1169   -7.7937 C   0  0  0  0  0  0  0  0  0  0  0  0
   50.4575   -3.4228   -6.3032 C   0  0  0  0  0  0  0  0  0  0  0  0
   49.8007   -2.2317   -6.9373 C   0  0  0  0  0  0  0  0  0  0  0  0
 19 20  1  0  0  0
 20 10  1  0  0  0
 10 11  1  0  0  0
 11 12  1  0  0  0
 12 13  1  0  0  0
 13 14  1  0  0  0
 13 15  1  0  0  0
 15 16  1  0  0  0
 12  1  1  0  0  0
  1  2  1  0  0  0
  2  3  2  0  0  0
  3  4  1  0  0  0
  4  5  2  0  0  0
  5 22  1  0  0  0
 22 24  1  0  0  0
 24 25  1  0  0  0
 25 26  1  0  0  0
 26 27  1  0  0  0
  5  6  1  0  0  0
  6  7  2  0  0  0
  7  8  1  0  0  0
  8  9  2  0  0  0
 15 10  1  0  0  0
  9  1  1  0  0  0
  9  4  1  0  0  0
 27 25  1  0  0  0
 19 21  1  0  0  0
 14 17  1  0  0  0
 16 18  1  0  0  0
 22 23  1  0  0  0
M  END
> <minimizedAffinity>
-7.32153

> <CNNscore>
0.4348340034

> <CNNaffinity>
5.5023512840

> <CNN_VS>
2.3926093578

> <CNNaffinity_variance>
0.2419199646

$$$$
[H]OC([H])([H])[C@@]1([H])O[C@@]([H])(n2c([H])nc3c(N([H])C([H])([H])C4([H])C([H])([H])C4([H])[H])nc([H])nc32)[C@]([H])(O[H])[C@]1([H])O[H]


 27 30  0  0  0  0  0  0  0  0999 V2000
   54.3230   -6.0497   -5.5333 N   0  0  0  0  0  0  0  0  0  0  0  0
   55.5964   -5.9835   -5.9578 C   0  0  0  0  0  0  0  0  0  0  0  0
   55.6957   -5.1685   -7.0337 N   0  0  0  0  0  0  0  0  0  0  0  0
   54.4839   -4.7045   -7.3079 C   0  0  0  0  0  0  0  0  0  0  0  0
   54.0424   -3.8323   -8.3130 C   0  0  0  0  0  0  0  0  0  0  0  0
   52.7242   -3.5748   -8.2932 N   0  0  0  0  0  0  0  0  0  0  0  0
   51.8795   -4.1029   -7.3883 C   0  0  0  0  0  0  0  0  0  0  0  0
   52.3094   -4.9393   -6.4262 N   0  0  0  0  0  0  0  0  0  0  0  0
   53.6245   -5.2514   -6.3748 C   0  0  0  0  0  0  0  0  0  0  0  0
   53.2055   -6.2841   -2.3418 C   0  0  0  0  0  0  0  0  0  0  0  0
   52.9675   -6.0311   -3.6769 O   0  0  0  0  0  0  0  0  0  0  0  0
   53.8368   -6.8162   -4.4173 C   0  0  0  0  0  0  0  0  0  0  0  0
   54.9451   -7.2637   -3.5360 C   0  0  0  0  0  0  0  0  0  0  0  0
   54.8596   -8.6142   -3.1899 O   0  0  0  0  0  0  0  0  0  0  0  0
   54.7079   -6.4586   -2.2763 C   0  0  0  0  0  0  0  0  0  0  0  0
   55.0986   -7.1661   -1.1432 O   0  0  0  0  0  0  0  0  0  0  0  0
   54.8490   -9.2124   -3.9570 H   0  0  0  0  0  0  0  0  0  0  0  0
   55.4445   -6.4792   -0.4960 H   0  0  0  0  0  0  0  0  0  0  0  0
   53.9122   -4.5047   -0.9767 O   0  0  0  0  0  0  0  0  0  0  0  0
   52.7551   -5.1457   -1.4520 C   0  0  0  0  0  0  0  0  0  0  0  0
   54.5275   -5.1752   -0.5485 H   0  0  0  0  0  0  0  0  0  0  0  0
   54.9428   -3.2792   -9.2545 N   0  0  0  0  0  0  0  0  0  0  0  0
   55.1894   -2.2725   -9.1859 H   0  0  0  0  0  0  0  0  0  0  0  0
   55.5025   -4.0948  -10.2823 C   0  0  0  0  0  0  0  0  0  0  0  0
   56.9417   -3.8415  -10.6023 C   0  0  0  0  0  0  0  0  0  0  0  0
   57.8168   -5.0834  -10.4003 C   0  0  0  0  0  0  0  0  0  0  0  0
   57.5380   -4.5455  -11.7733 C   0  0  0  0  0  0  0  0  0  0  0  0
 19 20  1  0  0  0
 20 10  1  0  0  0
 10 11  1  0  0  0
 11 12  1  0  0  0
 12 13  1  0  0  0
 13 14  1  0  0  0
 13 15  1  0  0  0
 15 16  1  0  0  0
 12  1  1  0  0  0
  1  2  1  0  0  0
  2  3  2  0  0  0
  3  4  1  0  0  0
  4  5  2  0  0  0
  5 22  1  0  0  0
 22 24  1  0  0  0
 24 25  1  0  0  0
 25 26  1  0  0  0
 26 27  1  0  0  0
  5  6  1  0  0  0
  6  7  2  0  0  0
  7  8  1  0  0  0
  8  9  2  0  0  0
 15 10  1  0  0  0
  9  1  1  0  0  0
  9  4  1  0  0  0
 27 25  1  0  0  0
 19 21  1  0  0  0
 14 17  1  0  0  0
 16 18  1  0  0  0
 22 23  1  0  0  0
M  END
> <minimizedAffinity>
-7.44310

> <CNNscore>
0.4057002068

> <CNNaffinity>
5.2836079597

> <CNN_VS>
2.1435608864

> <CNNaffinity_variance>
0.2949306071

$$$$
[H]OC([H])([H])[C@@]1([H])O[C@@]([H])(n2c([H])nc3c(N([H])C([H])([H])C4([H])C([H])([H])C4([H])[H])nc([H])nc32)[C@]([H])(O[H])[C@]1([H])O[H]


 27 30  0  0  0  0  0  0  0  0999 V2000
   56.2457   -5.7137   -6.6642 N   0  0  0  0  0  0  0  0  0  0  0  0
   57.4212   -5.6497   -7.3126 C   0  0  0  0  0  0  0  0  0  0  0  0
   57.2794   -4.9937   -8.4878 N   0  0  0  0  0  0  0  0  0  0  0  0
   56.0089   -4.6310   -8.6024 C   0  0  0  0  0  0  0  0  0  0  0  0
   55.3432   -3.9335   -9.6204 C   0  0  0  0  0  0  0  0  0  0  0  0
   54.0324   -3.7377   -9.4019 N   0  0  0  0  0  0  0  0  0  0  0  0
   53.3923   -4.1693   -8.2996 C   0  0  0  0  0  0  0  0  0  0  0  0
   54.0366   -4.8380   -7.3262 N   0  0  0  0  0  0  0  0  0  0  0  0
   55.3603   -5.0778   -7.4675 C   0  0  0  0  0  0  0  0  0  0  0  0
   54.1965   -6.5863   -4.1091 C   0  0  0  0  0  0  0  0  0  0  0  0
   54.7184   -6.8340   -5.3619 O   0  0  0  0  0  0  0  0  0  0  0  0
   56.0106   -6.3340   -5.3879 C   0  0  0  0  0  0  0  0  0  0  0  0
   56.1717   -5.3680   -4.2715 C   0  0  0  0  0  0  0  0  0  0  0  0
   56.9499   -5.8654   -3.2237 O   0  0  0  0  0  0  0  0  0  0  0  0
   54.7561   -5.2251   -3.7546 C   0  0  0  0  0  0  0  0  0  0  0  0
   54.7400   -4.9996   -2.3813 O   0  0  0  0  0  0  0  0  0  0  0  0
   57.8442   -6.1338   -3.4969 H   0  0  0  0  0  0  0  0  0  0  0  0
   53.9544   -4.3961   -2.2110 H   0  0  0  0  0  0  0  0  0  0  0  0
   52.2813   -5.4590   -3.3407 O   0  0  0  0  0  0  0  0  0  0  0  0
   52.6833   -6.5639   -4.1110 C   0  0  0  0  0  0  0  0  0  0  0  0
   52.7154   -5.4936   -2.4341 H   0  0  0  0  0  0  0  0  0  0  0  0
   56.0301   -3.4798  -10.7717 N   0  0  0  0  0  0  0  0  0  0  0  0
   56.8182   -2.8126  -10.6589 H   0  0  0  0  0  0  0  0  0  0  0  0
   55.6438   -3.9339  -12.0676 C   0  0  0  0  0  0  0  0  0  0  0  0
   56.7562   -4.4043  -12.9504 C   0  0  0  0  0  0  0  0  0  0  0  0
   56.2488   -5.0192  -14.2593 C   0  0  0  0  0  0  0  0  0  0  0  0
   56.9705   -3.7034  -14.2485 C   0  0  0  0  0  0  0  0  0  0  0  0
 19 20  1  0  0  0
 20 10  1  0  0  0
 10 11  1  0  0  0
 11 12  1  0  0  0
 12 13  1  0  0  0
 13 14  1  0  0  0
 13 15  1  0  0  0
 15 16  1  0  0  0
 12  1  1  0  0  0
  1  2  1  0  0  0
  2  3  2  0  0  0
  3  4  1  0  0  0
  4  5  2  0  0  0
  5 22  1  0  0  0
 22 24  1  0  0  0
 24 25  1  0  0  0
 25 26  1  0  0  0
 26 27  1  0  0  0
  5  6  1  0  0  0
  6  7  2  0  0  0
  7  8  1  0  0  0
  8  9  2  0  0  0
 15 10  1  0  0  0
  9  1  1  0  0  0
  9  4  1  0  0  0
 27 25  1  0  0  0
 19 21  1  0  0  0
 14 17  1  0  0  0
 16 18  1  0  0  0
 22 23  1  0  0  0
M  END
> <minimizedAffinity>
-6.11434

> <CNNscore>
0.3968441486

> <CNNaffinity>
5.1541604996

> <CNN_VS>
2.0453984737

> <CNNaffinity_variance>
0.1414841563

$$$$
[H]OC([H])([H])[C@@]1([H])O[C@@]([H])(n2c([H])nc3c(N([H])C([H])([H])C4([H])C([H])([H])C4([H])[H])nc([H])nc32)[C@]([H])(O[H])[C@]1([H])O[H]


 27 30  0  0  0  0  0  0  0  0999 V2000
   52.6434   -5.7818   -6.0772 N   0  0  0  0  0  0  0  0  0  0  0  0
   53.7650   -6.2314   -6.6656 C   0  0  0  0  0  0  0  0  0  0  0  0
   54.0947   -5.4480   -7.7188 N   0  0  0  0  0  0  0  0  0  0  0  0
   53.1849   -4.4876   -7.8140 C   0  0  0  0  0  0  0  0  0  0  0  0
   53.0637   -3.4271   -8.7232 C   0  0  0  0  0  0  0  0  0  0  0  0
   52.0002   -2.6323   -8.5195 N   0  0  0  0  0  0  0  0  0  0  0  0
   51.1115   -2.8233   -7.5271 C   0  0  0  0  0  0  0  0  0  0  0  0
   51.2333   -3.8429   -6.6579 N   0  0  0  0  0  0  0  0  0  0  0  0
   52.2779   -4.6917   -6.7923 C   0  0  0  0  0  0  0  0  0  0  0  0
   50.3970   -5.6430   -3.5427 C   0  0  0  0  0  0  0  0  0  0  0  0
   50.6916   -5.8890   -4.8678 O   0  0  0  0  0  0  0  0  0  0  0  0
   51.9936   -6.3592   -4.9311 C   0  0  0  0  0  0  0  0  0  0  0  0
   52.6916   -6.0044   -3.6692 C   0  0  0  0  0  0  0  0  0  0  0  0
   52.8969   -7.1010   -2.8289 O   0  0  0  0  0  0  0  0  0  0  0  0
   51.6936   -5.0932   -2.9873 C   0  0  0  0  0  0  0  0  0  0  0  0
   51.7588   -5.2184   -1.6027 O   0  0  0  0  0  0  0  0  0  0  0  0
   53.4077   -7.8180   -3.2429 H   0  0  0  0  0  0  0  0  0  0  0  0
   51.5551   -4.3056   -1.2343 H   0  0  0  0  0  0  0  0  0  0  0  0
   49.3947   -3.7053   -4.4203 O   0  0  0  0  0  0  0  0  0  0  0  0
   49.2730   -4.6427   -3.3799 C   0  0  0  0  0  0  0  0  0  0  0  0
   50.3234   -3.3194   -4.4307 H   0  0  0  0  0  0  0  0  0  0  0  0
   54.0092   -3.2342   -9.7585 N   0  0  0  0  0  0  0  0  0  0  0  0
   53.6799   -2.9101  -10.6888 H   0  0  0  0  0  0  0  0  0  0  0  0
   55.3945   -3.4821   -9.5253 C   0  0  0  0  0  0  0  0  0  0  0  0
   56.0648   -4.3970  -10.5008 C   0  0  0  0  0  0  0  0  0  0  0  0
   57.2038   -3.7115  -11.2634 C   0  0  0  0  0  0  0  0  0  0  0  0
   57.4831   -4.7804  -10.2477 C   0  0  0  0  0  0  0  0  0  0  0  0
 19 20  1  0  0  0
 20 10  1  0  0  0
 10 11  1  0  0  0
 11 12  1  0  0  0
 12 13  1  0  0  0
 13 14  1  0  0  0
 13 15  1  0  0  0
 15 16  1  0  0  0
 12  1  1  0  0  0
  1  2  1  0  0  0
  2  3  2  0  0  0
  3  4  1  0  0  0
  4  5  2  0  0  0
  5 22  1  0  0  0
 22 24  1  0  0  0
 24 25  1  0  0  0
 25 26  1  0  0  0
 26 27  1  0  0  0
  5  6  1  0  0  0
  6  7  2  0  0  0
  7  8  1  0  0  0
  8  9  2  0  0  0
 15 10  1  0  0  0
  9  1  1  0  0  0
  9  4  1  0  0  0
 27 25  1  0  0  0
 19 21  1  0  0  0
 14 17  1  0  0  0
 16 18  1  0  0  0
 22 23  1  0  0  0
M  END
> <minimizedAffinity>
-7.89522

> <CNNscore>
0.3774388731

> <CNNaffinity>
5.5483808517

> <CNN_VS>
2.0941746235

> <CNNaffinity_variance>
0.1219198704

$$$$
[H]OC([H])([H])[C@@]1([H])O[C@@]([H])(n2c([H])nc3c(N([H])C([H])([H])C4([H])C([H])([H])C4([H])[H])nc([H])nc32)[C@]([H])(O[H])[C@]1([H])O[H]


 27 30  0  0  0  0  0  0  0  0999 V2000
   55.1173   -4.4231   -8.0056 N   0  0  0  0  0  0  0  0  0  0  0  0
   54.8616   -5.5025   -7.2469 C   0  0  0  0  0  0  0  0  0  0  0  0
   53.5533   -5.5410   -6.9027 N   0  0  0  0  0  0  0  0  0  0  0  0
   52.9585   -4.4841   -7.4394 C   0  0  0  0  0  0  0  0  0  0  0  0
   51.6233   -4.0592   -7.3876 C   0  0  0  0  0  0  0  0  0  0  0  0
   51.3695   -2.9235   -8.0584 N   0  0  0  0  0  0  0  0  0  0  0  0
   52.3092   -2.2349   -8.7320 C   0  0  0  0  0  0  0  0  0  0  0  0
   53.5888   -2.6477   -8.7779 N   0  0  0  0  0  0  0  0  0  0  0  0
   53.9300   -3.7839   -8.1282 C   0  0  0  0  0  0  0  0  0  0  0  0
   57.2572   -4.1068  -10.6152 C   0  0  0  0  0  0  0  0  0  0  0  0
   56.2127   -3.6170   -9.8588 O   0  0  0  0  0  0  0  0  0  0  0  0
   56.3938   -4.0528   -8.5558 C   0  0  0  0  0  0  0  0  0  0  0  0
   57.3403   -5.1971   -8.5619 C   0  0  0  0  0  0  0  0  0  0  0  0
   58.6038   -4.8664   -8.0669 O   0  0  0  0  0  0  0  0  0  0  0  0
   57.4955   -5.4865  -10.0395 C   0  0  0  0  0  0  0  0  0  0  0  0
   58.7728   -5.9563  -10.3311 O   0  0  0  0  0  0  0  0  0  0  0  0
   58.5868   -4.5181   -7.1586 H   0  0  0  0  0  0  0  0  0  0  0  0
   58.6594   -6.6111  -11.0852 H   0  0  0  0  0  0  0  0  0  0  0  0
   58.0506   -4.6707  -12.7558 O   0  0  0  0  0  0  0  0  0  0  0  0
   56.9125   -4.1881  -12.0866 C   0  0  0  0  0  0  0  0  0  0  0  0
   58.8512   -4.1069  -12.5264 H   0  0  0  0  0  0  0  0  0  0  0  0
   50.6438   -4.7966   -6.6806 N   0  0  0  0  0  0  0  0  0  0  0  0
   50.1037   -5.5286   -7.1820 H   0  0  0  0  0  0  0  0  0  0  0  0
   50.4036   -4.5365   -5.2987 C   0  0  0  0  0  0  0  0  0  0  0  0
   50.5637   -5.7057   -4.3793 C   0  0  0  0  0  0  0  0  0  0  0  0
   51.8784   -5.6604   -3.5931 C   0  0  0  0  0  0  0  0  0  0  0  0
   50.5583   -5.4531   -2.9101 C   0  0  0  0  0  0  0  0  0  0  0  0
 19 20  1  0  0  0
 20 10  1  0  0  0
 10 11  1  0  0  0
 11 12  1  0  0  0
 12 13  1  0  0  0
 13 14  1  0  0  0
 13 15  1  0  0  0
 15 16  1  0  0  0
 12  1  1  0  0  0
  1  2  1  0  0  0
  2  3  2  0  0  0
  3  4  1  0  0  0
  4  5  2  0  0  0
  5 22  1  0  0  0
 22 24  1  0  0  0
 24 25  1  0  0  0
 25 26  1  0  0  0
 26 27  1  0  0  0
  5  6  1  0  0  0
  6  7  2  0  0  0
  7  8  1  0  0  0
  8  9  2  0  0  0
 15 10  1  0  0  0
  9  1  1  0  0  0
  9  4  1  0  0  0
 27 25  1  0  0  0
 19 21  1  0  0  0
 14 17  1  0  0  0
 16 18  1  0  0  0
 22 23  1  0  0  0
M  END
> <minimizedAffinity>
-7.76003

> <CNNscore>
0.3712881505

> <CNNaffinity>
5.7702922821

> <CNN_VS>
2.1424410343

> <CNNaffinity_variance>
0.3654745221

$$$$
[H]OC([H])([H])[C@@]1([H])O[C@@]([H])(n2c([H])nc3c(N([H])C([H])([H])C4([H])C([H])([H])C4([H])[H])nc([H])nc32)[C@]([H])(O[H])[C@]1([H])O[H]


 27 30  0  0  0  0  0  0  0  0999 V2000
   54.7234   -4.9114   -6.8230 N   0  0  0  0  0  0  0  0  0  0  0  0
   53.7145   -4.4270   -7.5672 C   0  0  0  0  0  0  0  0  0  0  0  0
   54.1369   -4.1657   -8.8261 N   0  0  0  0  0  0  0  0  0  0  0  0
   55.4230   -4.4813   -8.8992 C   0  0  0  0  0  0  0  0  0  0  0  0
   56.3267   -4.4023   -9.9683 C   0  0  0  0  0  0  0  0  0  0  0  0
   57.5727   -4.8139   -9.6813 N   0  0  0  0  0  0  0  0  0  0  0  0
   57.9423   -5.2688   -8.4699 C   0  0  0  0  0  0  0  0  0  0  0  0
   57.0705   -5.3422   -7.4480 N   0  0  0  0  0  0  0  0  0  0  0  0
   55.7931   -4.9469   -7.6523 C   0  0  0  0  0  0  0  0  0  0  0  0
   56.0561   -6.3527   -4.0598 C   0  0  0  0  0  0  0  0  0  0  0  0
   55.9229   -5.2619   -4.8937 O   0  0  0  0  0  0  0  0  0  0  0  0
   54.6500   -5.3007   -5.4402 C   0  0  0  0  0  0  0  0  0  0  0  0
   54.1053   -6.6736   -5.2859 C   0  0  0  0  0  0  0  0  0  0  0  0
   53.1142   -6.7635   -4.3058 O   0  0  0  0  0  0  0  0  0  0  0  0
   55.3060   -7.4485   -4.7866 C   0  0  0  0  0  0  0  0  0  0  0  0
   54.9237   -8.4736   -3.9262 O   0  0  0  0  0  0  0  0  0  0  0  0
   52.3562   -6.1745   -4.4641 H   0  0  0  0  0  0  0  0  0  0  0  0
   55.5772   -9.2212   -4.0820 H   0  0  0  0  0  0  0  0  0  0  0  0
   58.0545   -7.0085   -5.1114 O   0  0  0  0  0  0  0  0  0  0  0  0
   57.5036   -6.7396   -3.8464 C   0  0  0  0  0  0  0  0  0  0  0  0
   57.4900   -7.6842   -5.5975 H   0  0  0  0  0  0  0  0  0  0  0  0
   55.9229   -3.9277  -11.2391 N   0  0  0  0  0  0  0  0  0  0  0  0
   54.9977   -3.4653  -11.3344 H   0  0  0  0  0  0  0  0  0  0  0  0
   56.7763   -4.0834  -12.3715 C   0  0  0  0  0  0  0  0  0  0  0  0
   56.2142   -3.6202  -13.6782 C   0  0  0  0  0  0  0  0  0  0  0  0
   57.2653   -3.5892  -14.7930 C   0  0  0  0  0  0  0  0  0  0  0  0
   56.1519   -4.5953  -14.8041 C   0  0  0  0  0  0  0  0  0  0  0  0
 19 20  1  0  0  0
 20 10  1  0  0  0
 10 11  1  0  0  0
 11 12  1  0  0  0
 12 13  1  0  0  0
 13 14  1  0  0  0
 13 15  1  0  0  0
 15 16  1  0  0  0
 12  1  1  0  0  0
  1  2  1  0  0  0
  2  3  2  0  0  0
  3  4  1  0  0  0
  4  5  2  0  0  0
  5 22  1  0  0  0
 22 24  1  0  0  0
 24 25  1  0  0  0
 25 26  1  0  0  0
 26 27  1  0  0  0
  5  6  1  0  0  0
  6  7  2  0  0  0
  7  8  1  0  0  0
  8  9  2  0  0  0
 15 10  1  0  0  0
  9  1  1  0  0  0
  9  4  1  0  0  0
 27 25  1  0  0  0
 19 21  1  0  0  0
 14 17  1  0  0  0
 16 18  1  0  0  0
 22 23  1  0  0  0
M  END
> <minimizedAffinity>
-7.20926

> <CNNscore>
0.3183778226

> <CNNaffinity>
4.8380699158

> <CNN_VS>
1.5403342247

> <CNNaffinity_variance>
0.3305683732

$$$$
[H]OC([H])([H])[C@@]1([H])O[C@@]([H])(n2c([H])nc3c(N([H])C([H])([H])C4([H])C([H])([H])C4([H])[H])nc([H])nc32)[C@]([H])(O[H])[C@]1([H])O[H]


 27 30  0  0  0  0  0  0  0  0999 V2000
   54.8066   -5.6781   -6.0743 N   0  0  0  0  0  0  0  0  0  0  0  0
   53.6856   -5.2116   -6.6505 C   0  0  0  0  0  0  0  0  0  0  0  0
   53.9618   -4.6820   -7.8650 N   0  0  0  0  0  0  0  0  0  0  0  0
   55.2651   -4.8052   -8.0775 C   0  0  0  0  0  0  0  0  0  0  0  0
   56.0557   -4.4221   -9.1702 C   0  0  0  0  0  0  0  0  0  0  0  0
   57.3625   -4.7065   -9.0445 N   0  0  0  0  0  0  0  0  0  0  0  0
   57.8886   -5.3107   -7.9632 C   0  0  0  0  0  0  0  0  0  0  0  0
   57.1247   -5.6760   -6.9177 N   0  0  0  0  0  0  0  0  0  0  0  0
   55.7962   -5.4259   -6.9634 C   0  0  0  0  0  0  0  0  0  0  0  0
   53.6081   -6.2902   -2.9634 C   0  0  0  0  0  0  0  0  0  0  0  0
   53.6240   -6.5666   -4.3148 O   0  0  0  0  0  0  0  0  0  0  0  0
   54.9018   -6.3072   -4.7842 C   0  0  0  0  0  0  0  0  0  0  0  0
   55.6046   -5.4416   -3.8034 C   0  0  0  0  0  0  0  0  0  0  0  0
   56.5819   -6.1216   -3.0731 O   0  0  0  0  0  0  0  0  0  0  0  0
   54.4972   -5.0711   -2.8402 C   0  0  0  0  0  0  0  0  0  0  0  0
   54.9845   -4.9135   -1.5462 O   0  0  0  0  0  0  0  0  0  0  0  0
   57.2664   -6.5334   -3.6286 H   0  0  0  0  0  0  0  0  0  0  0  0
   54.4284   -4.1872   -1.1295 H   0  0  0  0  0  0  0  0  0  0  0  0
   52.3476   -5.4515   -1.1641 O   0  0  0  0  0  0  0  0  0  0  0  0
   52.2140   -5.9951   -2.4535 C   0  0  0  0  0  0  0  0  0  0  0  0
   52.9023   -6.0613   -0.5879 H   0  0  0  0  0  0  0  0  0  0  0  0
   55.4882   -3.7930  -10.3039 N   0  0  0  0  0  0  0  0  0  0  0  0
   54.8198   -3.0101  -10.1649 H   0  0  0  0  0  0  0  0  0  0  0  0
   55.8310   -4.2296  -11.6180 C   0  0  0  0  0  0  0  0  0  0  0  0
   56.8053   -3.3675  -12.3564 C   0  0  0  0  0  0  0  0  0  0  0  0
   58.1567   -4.0576  -12.5712 C   0  0  0  0  0  0  0  0  0  0  0  0
   57.2294   -3.7924  -13.7209 C   0  0  0  0  0  0  0  0  0  0  0  0
 19 20  1  0  0  0
 20 10  1  0  0  0
 10 11  1  0  0  0
 11 12  1  0  0  0
 12 13  1  0  0  0
 13 14  1  0  0  0
 13 15  1  0  0  0
 15 16  1  0  0  0
 12  1  1  0  0  0
  1  2  1  0  0  0
  2  3  2  0  0  0
  3  4  1  0  0  0
  4  5  2  0  0  0
  5 22  1  0  0  0
 22 24  1  0  0  0
 24 25  1  0  0  0
 25 26  1  0  0  0
 26 27  1  0  0  0
  5  6  1  0  0  0
  6  7  2  0  0  0
  7  8  1  0  0  0
  8  9  2  0  0  0
 15 10  1  0  0  0
  9  1  1  0  0  0
  9  4  1  0  0  0
 27 25  1  0  0  0
 19 21  1  0  0  0
 14 17  1  0  0  0
 16 18  1  0  0  0
 22 23  1  0  0  0
M  END
> <minimizedAffinity>
-6.59719

> <CNNscore>
0.3104577363

> <CNNaffinity>
4.9567351341

> <CNN_VS>
1.5388567448

> <CNNaffinity_variance>
0.2606627345

$$$$
[H]c1nc([H])n(C([H])([H])c2c([H])c([H])c(C(=O)N([H])c3sc(N([H])c4c([H])c([H])c5c([H])c([H])c([H])c([H])c5c4[H])nc3C(=O)N([H])[H])c([H])c2[H])n1


 38 42  0  0  0  0  0  0  0  0999 V2000
   58.2275   -4.9039  -10.7514 C   0  0  0  0  0  0  0  0  0  0  0  0
   59.4034   -5.4806  -10.6744 N   0  0  0  0  0  0  0  0  0  0  0  0
   59.8713   -5.9642   -9.5734 C   0  0  0  0  0  0  0  0  0  0  0  0
   58.5759   -5.6091   -8.4854 S   0  0  0  0  0  0  0  0  0  0  0  0
   57.4861   -4.8253   -9.6407 C   0  0  0  0  0  0  0  0  0  0  0  0
   56.8931   -3.1365  -12.0154 N   0  0  0  0  0  0  0  0  0  0  0  0
   57.9062   -4.1627  -12.0143 C   0  0  0  0  0  0  0  0  0  0  0  0
   58.4502   -4.3556  -13.0943 O   0  0  0  0  0  0  0  0  0  0  0  0
   57.1859   -2.1987  -12.3301 H   0  0  0  0  0  0  0  0  0  0  0  0
   55.9382   -3.3417  -11.7172 H   0  0  0  0  0  0  0  0  0  0  0  0
   56.1520   -4.5149   -9.2765 N   0  0  0  0  0  0  0  0  0  0  0  0
   55.6163   -3.8989   -8.1577 C   0  0  0  0  0  0  0  0  0  0  0  0
   56.2762   -3.4386   -7.2180 O   0  0  0  0  0  0  0  0  0  0  0  0
   55.4075   -4.8214  -10.0164 H   0  0  0  0  0  0  0  0  0  0  0  0
   54.1472   -3.7473   -8.0150 C   0  0  0  0  0  0  0  0  0  0  0  0
   53.4624   -4.6512   -7.2446 C   0  0  0  0  0  0  0  0  0  0  0  0
   52.0993   -4.5862   -7.0645 C   0  0  0  0  0  0  0  0  0  0  0  0
   51.3651   -3.5909   -7.6646 C   0  0  0  0  0  0  0  0  0  0  0  0
   52.0594   -2.6899   -8.4346 C   0  0  0  0  0  0  0  0  0  0  0  0
   53.4358   -2.7512   -8.6196 C   0  0  0  0  0  0  0  0  0  0  0  0
   49.9032   -3.5041   -7.4835 C   0  0  0  0  0  0  0  0  0  0  0  0
   49.5313   -3.4860   -6.0735 N   0  0  0  0  0  0  0  0  0  0  0  0
   48.8216   -2.5420   -5.4365 C   0  0  0  0  0  0  0  0  0  0  0  0
   48.6727   -2.8565   -4.1449 N   0  0  0  0  0  0  0  0  0  0  0  0
   49.3077   -4.0296   -3.9728 C   0  0  0  0  0  0  0  0  0  0  0  0
   49.8192   -4.3913   -5.1514 N   0  0  0  0  0  0  0  0  0  0  0  0
   61.1050   -6.6271   -9.2451 N   0  0  0  0  0  0  0  0  0  0  0  0
   61.3919   -6.5282   -8.2250 H   0  0  0  0  0  0  0  0  0  0  0  0
   61.8944   -7.3431  -10.1243 C   0  0  0  0  0  0  0  0  0  0  0  0
   62.1040   -8.6980   -9.8261 C   0  0  0  0  0  0  0  0  0  0  0  0
   62.8699   -9.5119  -10.6248 C   0  0  0  0  0  0  0  0  0  0  0  0
   63.4573   -8.9628  -11.7733 C   0  0  0  0  0  0  0  0  0  0  0  0
   64.2282   -9.7667  -12.5842 C   0  0  0  0  0  0  0  0  0  0  0  0
   64.8282   -9.2733  -13.7262 C   0  0  0  0  0  0  0  0  0  0  0  0
   64.6230   -7.9425  -14.0203 C   0  0  0  0  0  0  0  0  0  0  0  0
   63.8572   -7.1189  -13.2260 C   0  0  0  0  0  0  0  0  0  0  0  0
   63.2758   -7.6437  -12.0980 C   0  0  0  0  0  0  0  0  0  0  0  0
   62.4840   -6.8557  -11.2479 C   0  0  0  0  0  0  0  0  0  0  0  0
  6  7  1  0  0  0
  7  8  2  0  0  0
  7  1  1  0  0  0
  1  2  1  0  0  0
  2  3  2  0  0  0
  3 27  1  0  0  0
 27 29  1  0  0  0
 29 30  2  0  0  0
 30 31  1  0  0  0
 31 32  2  0  0  0
 32 33  1  0  0  0
 33 34  2  0  0  0
 34 35  1  0  0  0
 35 36  2  0  0  0
 36 37  1  0  0  0
 37 38  2  0  0  0
  3  4  1  0  0  0
  4  5  1  0  0  0
  5 11  1  0  0  0
 11 12  1  0  0  0
 12 13  2  0  0  0
 12 15  1  0  0  0
 15 16  2  0  0  0
 16 17  1  0  0  0
 17 18  2  0  0  0
 18 21  1  0  0  0
 21 22  1  0  0  0
 22 23  1  0  0  0
 23 24  2  0  0  0
 24 25  1  0  0  0
 25 26  2  0  0  0
 18 19  1  0  0  0
 19 20  2  0  0  0
  5  1  2  0  0  0
 20 15  1  0  0  0
 38 29  1  0  0  0
 26 22  1  0  0  0
 37 32  1  0  0  0
  6  9  1  0  0  0
  6 10  1  0  0  0
 27 28  1  0  0  0
 11 14  1  0  0  0
M  END
> <minimizedAffinity>
-9.55150

> <CNNscore>
0.5199959874

> <CNNaffinity>
6.3595991135

> <CNN_VS>
3.3069660664

> <CNNaffinity_variance>
0.1061228737

$$$$
[H]c1nc([H])n(C([H])([H])c2c([H])c([H])c(C(=O)N([H])c3sc(N([H])c4c([H])c([H])c5c([H])c([H])c([H])c([H])c5c4[H])nc3C(=O)N([H])[H])c([H])c2[H])n1


 38 42  0  0  0  0  0  0  0  0999 V2000
   52.8465   -3.9704   -7.7794 C   0  0  0  0  0  0  0  0  0  0  0  0
   52.3780   -4.3719   -6.6215 N   0  0  0  0  0  0  0  0  0  0  0  0
   52.8241   -5.4198   -6.0151 C   0  0  0  0  0  0  0  0  0  0  0  0
   54.0343   -5.9503   -7.1294 S   0  0  0  0  0  0  0  0  0  0  0  0
   53.8324   -4.6769   -8.3436 C   0  0  0  0  0  0  0  0  0  0  0  0
   50.8664   -2.3707   -7.9281 N   0  0  0  0  0  0  0  0  0  0  0  0
   52.0821   -2.8985   -8.4964 C   0  0  0  0  0  0  0  0  0  0  0  0
   52.4100   -2.4059   -9.5686 O   0  0  0  0  0  0  0  0  0  0  0  0
   50.8365   -1.3523   -7.7662 H   0  0  0  0  0  0  0  0  0  0  0  0
   50.0828   -2.9853   -7.7022 H   0  0  0  0  0  0  0  0  0  0  0  0
   54.7607   -4.5401   -9.4058 N   0  0  0  0  0  0  0  0  0  0  0  0
   56.1377   -4.3924   -9.4198 C   0  0  0  0  0  0  0  0  0  0  0  0
   56.8607   -4.3936   -8.4161 O   0  0  0  0  0  0  0  0  0  0  0  0
   54.3031   -4.5510  -10.3990 H   0  0  0  0  0  0  0  0  0  0  0  0
   56.8611   -4.2163  -10.7034 C   0  0  0  0  0  0  0  0  0  0  0  0
   56.1740   -3.7336  -11.7870 C   0  0  0  0  0  0  0  0  0  0  0  0
   56.7673   -3.5457  -13.0148 C   0  0  0  0  0  0  0  0  0  0  0  0
   58.0971   -3.8426  -13.1973 C   0  0  0  0  0  0  0  0  0  0  0  0
   58.7775   -4.3258  -12.1062 C   0  0  0  0  0  0  0  0  0  0  0  0
   58.1829   -4.5174  -10.8644 C   0  0  0  0  0  0  0  0  0  0  0  0
   58.7514   -3.6479  -14.5055 C   0  0  0  0  0  0  0  0  0  0  0  0
   60.1794   -3.3872  -14.3645 N   0  0  0  0  0  0  0  0  0  0  0  0
   60.7611   -2.2184  -14.0547 C   0  0  0  0  0  0  0  0  0  0  0  0
   62.0915   -2.3515  -14.0127 N   0  0  0  0  0  0  0  0  0  0  0  0
   62.3452   -3.6396  -14.3046 C   0  0  0  0  0  0  0  0  0  0  0  0
   61.1751   -4.2468  -14.5137 N   0  0  0  0  0  0  0  0  0  0  0  0
   52.4782   -6.0468   -4.7674 N   0  0  0  0  0  0  0  0  0  0  0  0
   51.6846   -6.7519   -4.8421 H   0  0  0  0  0  0  0  0  0  0  0  0
   53.0801   -5.8021   -3.5481 C   0  0  0  0  0  0  0  0  0  0  0  0
   52.2350   -5.7205   -2.4310 C   0  0  0  0  0  0  0  0  0  0  0  0
   52.7162   -5.4815   -1.1668 C   0  0  0  0  0  0  0  0  0  0  0  0
   54.0977   -5.3149   -0.9962 C   0  0  0  0  0  0  0  0  0  0  0  0
   54.5952   -5.0745    0.2658 C   0  0  0  0  0  0  0  0  0  0  0  0
   55.9480   -4.9034    0.4860 C   0  0  0  0  0  0  0  0  0  0  0  0
   56.7792   -4.9834   -0.6105 C   0  0  0  0  0  0  0  0  0  0  0  0
   56.3064   -5.2225   -1.8814 C   0  0  0  0  0  0  0  0  0  0  0  0
   54.9552   -5.3877   -2.0629 C   0  0  0  0  0  0  0  0  0  0  0  0
   54.4118   -5.6340   -3.3335 C   0  0  0  0  0  0  0  0  0  0  0  0
  6  7  1  0  0  0
  7  8  2  0  0  0
  7  1  1  0  0  0
  1  2  1  0  0  0
  2  3  2  0  0  0
  3 27  1  0  0  0
 27 29  1  0  0  0
 29 30  2  0  0  0
 30 31  1  0  0  0
 31 32  2  0  0  0
 32 33  1  0  0  0
 33 34  2  0  0  0
 34 35  1  0  0  0
 35 36  2  0  0  0
 36 37  1  0  0  0
 37 38  2  0  0  0
  3  4  1  0  0  0
  4  5  1  0  0  0
  5 11  1  0  0  0
 11 12  1  0  0  0
 12 13  2  0  0  0
 12 15  1  0  0  0
 15 16  2  0  0  0
 16 17  1  0  0  0
 17 18  2  0  0  0
 18 21  1  0  0  0
 21 22  1  0  0  0
 22 23  1  0  0  0
 23 24  2  0  0  0
 24 25  1  0  0  0
 25 26  2  0  0  0
 18 19  1  0  0  0
 19 20  2  0  0  0
  5  1  2  0  0  0
 20 15  1  0  0  0
 38 29  1  0  0  0
 26 22  1  0  0  0
 37 32  1  0  0  0
  6  9  1  0  0  0
  6 10  1  0  0  0
 27 28  1  0  0  0
 11 14  1  0  0  0
M  END
> <minimizedAffinity>
-8.71649

> <CNNscore>
0.4827355146

> <CNNaffinity>
6.7517952919

> <CNN_VS>
3.2593314648

> <CNNaffinity_variance>
0.0689357966

$$$$
[H]c1nc([H])n(C([H])([H])c2c([H])c([H])c(C(=O)N([H])c3sc(N([H])c4c([H])c([H])c5c([H])c([H])c([H])c([H])c5c4[H])nc3C(=O)N([H])[H])c([H])c2[H])n1


 38 42  0  0  0  0  0  0  0  0999 V2000
   52.0510   -3.8251   -7.4012 C   0  0  0  0  0  0  0  0  0  0  0  0
   51.4588   -4.2748   -6.3203 N   0  0  0  0  0  0  0  0  0  0  0  0
   51.7203   -5.4320   -5.8130 C   0  0  0  0  0  0  0  0  0  0  0  0
   52.9185   -6.0085   -6.9174 S   0  0  0  0  0  0  0  0  0  0  0  0
   52.9681   -4.6005   -7.9906 C   0  0  0  0  0  0  0  0  0  0  0  0
   50.2555   -2.0197   -7.5375 N   0  0  0  0  0  0  0  0  0  0  0  0
   51.4852   -2.5883   -8.0316 C   0  0  0  0  0  0  0  0  0  0  0  0
   51.9943   -1.9875   -8.9695 O   0  0  0  0  0  0  0  0  0  0  0  0
   50.2934   -1.0367   -7.2267 H   0  0  0  0  0  0  0  0  0  0  0  0
   49.3982   -2.5734   -7.5025 H   0  0  0  0  0  0  0  0  0  0  0  0
   53.9733   -4.4857   -8.9831 N   0  0  0  0  0  0  0  0  0  0  0  0
   55.3540   -4.5742   -8.9182 C   0  0  0  0  0  0  0  0  0  0  0  0
   56.0003   -4.8300   -7.8950 O   0  0  0  0  0  0  0  0  0  0  0  0
   53.5857   -4.2882   -9.9864 H   0  0  0  0  0  0  0  0  0  0  0  0
   56.1783   -4.3571  -10.1327 C   0  0  0  0  0  0  0  0  0  0  0  0
   57.4865   -4.7669  -10.1241 C   0  0  0  0  0  0  0  0  0  0  0  0
   58.3212   -4.5986  -11.2056 C   0  0  0  0  0  0  0  0  0  0  0  0
   57.8592   -4.0009  -12.3542 C   0  0  0  0  0  0  0  0  0  0  0  0
   56.5474   -3.5934  -12.3538 C   0  0  0  0  0  0  0  0  0  0  0  0
   55.7006   -3.7611  -11.2643 C   0  0  0  0  0  0  0  0  0  0  0  0
   58.7381   -3.8116  -13.5243 C   0  0  0  0  0  0  0  0  0  0  0  0
   57.9766   -3.7077  -14.7637 N   0  0  0  0  0  0  0  0  0  0  0  0
   58.1230   -2.7860  -15.7278 C   0  0  0  0  0  0  0  0  0  0  0  0
   57.2518   -3.0003  -16.7200 N   0  0  0  0  0  0  0  0  0  0  0  0
   56.5429   -4.0863  -16.3636 C   0  0  0  0  0  0  0  0  0  0  0  0
   56.9978   -4.4971  -15.1779 N   0  0  0  0  0  0  0  0  0  0  0  0
   51.2133   -6.1302   -4.6619 N   0  0  0  0  0  0  0  0  0  0  0  0
   50.2749   -6.6058   -4.8222 H   0  0  0  0  0  0  0  0  0  0  0  0
   51.8361   -6.2152   -3.4315 C   0  0  0  0  0  0  0  0  0  0  0  0
   51.1259   -6.8583   -2.4066 C   0  0  0  0  0  0  0  0  0  0  0  0
   51.6406   -7.0042   -1.1414 C   0  0  0  0  0  0  0  0  0  0  0  0
   52.9177   -6.4911   -0.8744 C   0  0  0  0  0  0  0  0  0  0  0  0
   53.4472   -6.6299    0.3899 C   0  0  0  0  0  0  0  0  0  0  0  0
   54.7007   -6.1417    0.7030 C   0  0  0  0  0  0  0  0  0  0  0  0
   55.3996   -5.5098   -0.3030 C   0  0  0  0  0  0  0  0  0  0  0  0
   54.8921   -5.3586   -1.5740 C   0  0  0  0  0  0  0  0  0  0  0  0
   53.6423   -5.8566   -1.8495 C   0  0  0  0  0  0  0  0  0  0  0  0
   53.0700   -5.7341   -3.1254 C   0  0  0  0  0  0  0  0  0  0  0  0
  6  7  1  0  0  0
  7  8  2  0  0  0
  7  1  1  0  0  0
  1  2  1  0  0  0
  2  3  2  0  0  0
  3 27  1  0  0  0
 27 29  1  0  0  0
 29 30  2  0  0  0
 30 31  1  0  0  0
 31 32  2  0  0  0
 32 33  1  0  0  0
 33 34  2  0  0  0
 34 35  1  0  0  0
 35 36  2  0  0  0
 36 37  1  0  0  0
 37 38  2  0  0  0
  3  4  1  0  0  0
  4  5  1  0  0  0
  5 11  1  0  0  0
 11 12  1  0  0  0
 12 13  2  0  0  0
 12 15  1  0  0  0
 15 16  2  0  0  0
 16 17  1  0  0  0
 17 18  2  0  0  0
 18 21  1  0  0  0
 21 22  1  0  0  0
 22 23  1  0  0  0
 23 24  2  0  0  0
 24 25  1  0  0  0
 25 26  2  0  0  0
 18 19  1  0  0  0
 19 20  2  0  0  0
  5  1  2  0  0  0
 20 15  1  0  0  0
 38 29  1  0  0  0
 26 22  1  0  0  0
 37 32  1  0  0  0
  6  9  1  0  0  0
  6 10  1  0  0  0
 27 28  1  0  0  0
 11 14  1  0  0  0
M  END
> <minimizedAffinity>
-9.32498

> <CNNscore>
0.4710945189

> <CNNaffinity>
7.0123090744

> <CNN_VS>
3.3034603596

> <CNNaffinity_variance>
0.0586329699

$$$$
[H]c1nc([H])n(C([H])([H])c2c([H])c([H])c(C(=O)N([H])c3sc(N([H])c4c([H])c([H])c5c([H])c([H])c([H])c([H])c5c4[H])nc3C(=O)N([H])[H])c([H])c2[H])n1


 38 42  0  0  0  0  0  0  0  0999 V2000
   58.1704   -5.0329  -10.6291 C   0  0  0  0  0  0  0  0  0  0  0  0
   59.3660   -5.5674  -10.5505 N   0  0  0  0  0  0  0  0  0  0  0  0
   59.8705   -5.9850   -9.4386 C   0  0  0  0  0  0  0  0  0  0  0  0
   58.5850   -5.6226   -8.3414 S   0  0  0  0  0  0  0  0  0  0  0  0
   57.4481   -4.9277   -9.5081 C   0  0  0  0  0  0  0  0  0  0  0  0
   57.3554   -2.9892  -11.9180 N   0  0  0  0  0  0  0  0  0  0  0  0
   57.8009   -4.3607  -11.9172 C   0  0  0  0  0  0  0  0  0  0  0  0
   57.8455   -4.8922  -13.0196 O   0  0  0  0  0  0  0  0  0  0  0  0
   57.8914   -2.3299  -12.5029 H   0  0  0  0  0  0  0  0  0  0  0  0
   56.5487   -2.6993  -11.3630 H   0  0  0  0  0  0  0  0  0  0  0  0
   56.1116   -4.6441   -9.1310 N   0  0  0  0  0  0  0  0  0  0  0  0
   55.5780   -3.9793   -8.0394 C   0  0  0  0  0  0  0  0  0  0  0  0
   56.2407   -3.4374   -7.1465 O   0  0  0  0  0  0  0  0  0  0  0  0
   55.3629   -5.0234   -9.8320 H   0  0  0  0  0  0  0  0  0  0  0  0
   54.1077   -3.8729   -7.8701 C   0  0  0  0  0  0  0  0  0  0  0  0
   53.4621   -4.8100   -7.1057 C   0  0  0  0  0  0  0  0  0  0  0  0
   52.1009   -4.7878   -6.9023 C   0  0  0  0  0  0  0  0  0  0  0  0
   51.3285   -3.8036   -7.4719 C   0  0  0  0  0  0  0  0  0  0  0  0
   51.9838   -2.8691   -8.2362 C   0  0  0  0  0  0  0  0  0  0  0  0
   53.3581   -2.8872   -8.4447 C   0  0  0  0  0  0  0  0  0  0  0  0
   49.8680   -3.7624   -7.2656 C   0  0  0  0  0  0  0  0  0  0  0  0
   49.5193   -3.7837   -5.8497 N   0  0  0  0  0  0  0  0  0  0  0  0
   48.8499   -2.8419   -5.1676 C   0  0  0  0  0  0  0  0  0  0  0  0
   48.7116   -3.1981   -3.8856 N   0  0  0  0  0  0  0  0  0  0  0  0
   49.3120   -4.3957   -3.7662 C   0  0  0  0  0  0  0  0  0  0  0  0
   49.7931   -4.7302   -4.9654 N   0  0  0  0  0  0  0  0  0  0  0  0
   61.1315   -6.5921   -9.1062 N   0  0  0  0  0  0  0  0  0  0  0  0
   61.5462   -6.2539   -8.1863 H   0  0  0  0  0  0  0  0  0  0  0  0
   61.7982   -7.5338   -9.8662 C   0  0  0  0  0  0  0  0  0  0  0  0
   62.7152   -7.0495  -10.8112 C   0  0  0  0  0  0  0  0  0  0  0  0
   63.4377   -7.8881  -11.6246 C   0  0  0  0  0  0  0  0  0  0  0  0
   63.2465   -9.2713  -11.4998 C   0  0  0  0  0  0  0  0  0  0  0  0
   63.9640  -10.1250  -12.3088 C   0  0  0  0  0  0  0  0  0  0  0  0
   63.8115  -11.4951  -12.2243 C   0  0  0  0  0  0  0  0  0  0  0  0
   62.9111  -11.9723  -11.2963 C   0  0  0  0  0  0  0  0  0  0  0  0
   62.1823  -11.1398  -10.4767 C   0  0  0  0  0  0  0  0  0  0  0  0
   62.3598   -9.7826  -10.5884 C   0  0  0  0  0  0  0  0  0  0  0  0
   61.6467   -8.8820   -9.7815 C   0  0  0  0  0  0  0  0  0  0  0  0
  6  7  1  0  0  0
  7  8  2  0  0  0
  7  1  1  0  0  0
  1  2  1  0  0  0
  2  3  2  0  0  0
  3 27  1  0  0  0
 27 29  1  0  0  0
 29 30  2  0  0  0
 30 31  1  0  0  0
 31 32  2  0  0  0
 32 33  1  0  0  0
 33 34  2  0  0  0
 34 35  1  0  0  0
 35 36  2  0  0  0
 36 37  1  0  0  0
 37 38  2  0  0  0
  3  4  1  0  0  0
  4  5  1  0  0  0
  5 11  1  0  0  0
 11 12  1  0  0  0
 12 13  2  0  0  0
 12 15  1  0  0  0
 15 16  2  0  0  0
 16 17  1  0  0  0
 17 18  2  0  0  0
 18 21  1  0  0  0
 21 22  1  0  0  0
 22 23  1  0  0  0
 23 24  2  0  0  0
 24 25  1  0  0  0
 25 26  2  0  0  0
 18 19  1  0  0  0
 19 20  2  0  0  0
  5  1  2  0  0  0
 20 15  1  0  0  0
 38 29  1  0  0  0
 26 22  1  0  0  0
 37 32  1  0  0  0
  6  9  1  0  0  0
  6 10  1  0  0  0
 27 28  1  0  0  0
 11 14  1  0  0  0
M  END
> <minimizedAffinity>
-9.60472

> <CNNscore>
0.4586491287

> <CNNaffinity>
6.2473268509

> <CNN_VS>
2.8653309345

> <CNNaffinity_variance>
0.1298436075

$$$$
[H]c1nc([H])n(C([H])([H])c2c([H])c([H])c(C(=O)N([H])c3sc(N([H])c4c([H])c([H])c5c([H])c([H])c([H])c([H])c5c4[H])nc3C(=O)N([H])[H])c([H])c2[H])n1


 38 42  0  0  0  0  0  0  0  0999 V2000
   58.2018   -4.7298  -11.0181 C   0  0  0  0  0  0  0  0  0  0  0  0
   59.3763   -5.3125  -11.0668 N   0  0  0  0  0  0  0  0  0  0  0  0
   59.8943   -5.9213  -10.0538 C   0  0  0  0  0  0  0  0  0  0  0  0
   58.6561   -5.6943   -8.8694 S   0  0  0  0  0  0  0  0  0  0  0  0
   57.5162   -4.7805   -9.8705 C   0  0  0  0  0  0  0  0  0  0  0  0
   58.8253   -3.4190  -13.1145 N   0  0  0  0  0  0  0  0  0  0  0  0
   57.8241   -3.8463  -12.1688 C   0  0  0  0  0  0  0  0  0  0  0  0
   56.6919   -3.4360  -12.3913 O   0  0  0  0  0  0  0  0  0  0  0  0
   58.6544   -3.6520  -14.1049 H   0  0  0  0  0  0  0  0  0  0  0  0
   59.6565   -2.9125  -12.8057 H   0  0  0  0  0  0  0  0  0  0  0  0
   56.2036   -4.5135   -9.4074 N   0  0  0  0  0  0  0  0  0  0  0  0
   55.7237   -4.0754   -8.1843 C   0  0  0  0  0  0  0  0  0  0  0  0
   56.4282   -3.7790   -7.2117 O   0  0  0  0  0  0  0  0  0  0  0  0
   55.4251   -4.6887  -10.1552 H   0  0  0  0  0  0  0  0  0  0  0  0
   54.2644   -3.9283   -7.9592 C   0  0  0  0  0  0  0  0  0  0  0  0
   53.6007   -2.9036   -8.5828 C   0  0  0  0  0  0  0  0  0  0  0  0
   52.2498   -2.6928   -8.4238 C   0  0  0  0  0  0  0  0  0  0  0  0
   51.5068   -3.5214   -7.6167 C   0  0  0  0  0  0  0  0  0  0  0  0
   52.1801   -4.5451   -6.9959 C   0  0  0  0  0  0  0  0  0  0  0  0
   53.5441   -4.7621   -7.1532 C   0  0  0  0  0  0  0  0  0  0  0  0
   50.0577   -3.3121   -7.4336 C   0  0  0  0  0  0  0  0  0  0  0  0
   49.6574   -3.4772   -6.0409 N   0  0  0  0  0  0  0  0  0  0  0  0
   48.8416   -2.6802   -5.3342 C   0  0  0  0  0  0  0  0  0  0  0  0
   48.6997   -3.1398   -4.0860 N   0  0  0  0  0  0  0  0  0  0  0  0
   49.4484   -4.2548   -4.0136 C   0  0  0  0  0  0  0  0  0  0  0  0
   50.0182   -4.4396   -5.2064 N   0  0  0  0  0  0  0  0  0  0  0  0
   61.1383   -6.6188   -9.8660 N   0  0  0  0  0  0  0  0  0  0  0  0
   61.4874   -7.1239  -10.7353 H   0  0  0  0  0  0  0  0  0  0  0  0
   61.8651   -6.6694   -8.6921 C   0  0  0  0  0  0  0  0  0  0  0  0
   61.4642   -7.6196   -7.7408 C   0  0  0  0  0  0  0  0  0  0  0  0
   62.1086   -7.7644   -6.5364 C   0  0  0  0  0  0  0  0  0  0  0  0
   63.2013   -6.9318   -6.2567 C   0  0  0  0  0  0  0  0  0  0  0  0
   63.8576   -7.0653   -5.0528 C   0  0  0  0  0  0  0  0  0  0  0  0
   64.9391   -6.2691   -4.7302 C   0  0  0  0  0  0  0  0  0  0  0  0
   65.3340   -5.3352   -5.6638 C   0  0  0  0  0  0  0  0  0  0  0  0
   64.6945   -5.1825   -6.8736 C   0  0  0  0  0  0  0  0  0  0  0  0
   63.6227   -5.9916   -7.1606 C   0  0  0  0  0  0  0  0  0  0  0  0
   62.9293   -5.8848   -8.3764 C   0  0  0  0  0  0  0  0  0  0  0  0
  6  7  1  0  0  0
  7  8  2  0  0  0
  7  1  1  0  0  0
  1  2  1  0  0  0
  2  3  2  0  0  0
  3 27  1  0  0  0
 27 29  1  0  0  0
 29 30  2  0  0  0
 30 31  1  0  0  0
 31 32  2  0  0  0
 32 33  1  0  0  0
 33 34  2  0  0  0
 34 35  1  0  0  0
 35 36  2  0  0  0
 36 37  1  0  0  0
 37 38  2  0  0  0
  3  4  1  0  0  0
  4  5  1  0  0  0
  5 11  1  0  0  0
 11 12  1  0  0  0
 12 13  2  0  0  0
 12 15  1  0  0  0
 15 16  2  0  0  0
 16 17  1  0  0  0
 17 18  2  0  0  0
 18 21  1  0  0  0
 21 22  1  0  0  0
 22 23  1  0  0  0
 23 24  2  0  0  0
 24 25  1  0  0  0
 25 26  2  0  0  0
 18 19  1  0  0  0
 19 20  2  0  0  0
  5  1  2  0  0  0
 20 15  1  0  0  0
 38 29  1  0  0  0
 26 22  1  0  0  0
 37 32  1  0  0  0
  6  9  1  0  0  0
  6 10  1  0  0  0
 27 28  1  0  0  0
 11 14  1  0  0  0
M  END
> <minimizedAffinity>
-9.44652

> <CNNscore>
0.4308719337

> <CNNaffinity>
6.4865217209

> <CNN_VS>
2.7948601246

> <CNNaffinity_variance>
0.0686562806

$$$$
[H]c1nc([H])n(C([H])([H])c2c([H])c([H])c(C(=O)N([H])c3sc(N([H])c4c([H])c([H])c5c([H])c([H])c([H])c([H])c5c4[H])nc3C(=O)N([H])[H])c([H])c2[H])n1


 38 42  0  0  0  0  0  0  0  0999 V2000
   58.2555   -4.9322  -10.7852 C   0  0  0  0  0  0  0  0  0  0  0  0
   59.4586   -5.4552  -10.7716 N   0  0  0  0  0  0  0  0  0  0  0  0
   59.9981   -5.9337   -9.7015 C   0  0  0  0  0  0  0  0  0  0  0  0
   58.7392   -5.6558   -8.5501 S   0  0  0  0  0  0  0  0  0  0  0  0
   57.5631   -4.9053   -9.6410 C   0  0  0  0  0  0  0  0  0  0  0  0
   57.0275   -3.0027  -11.9126 N   0  0  0  0  0  0  0  0  0  0  0  0
   57.8433   -4.1871  -12.0190 C   0  0  0  0  0  0  0  0  0  0  0  0
   58.1501   -4.5046  -13.1613 O   0  0  0  0  0  0  0  0  0  0  0  0
   57.4101   -2.1396  -12.3284 H   0  0  0  0  0  0  0  0  0  0  0  0
   56.1193   -3.0313  -11.4466 H   0  0  0  0  0  0  0  0  0  0  0  0
   56.2344   -4.6626   -9.2116 N   0  0  0  0  0  0  0  0  0  0  0  0
   55.7239   -4.0408   -8.0841 C   0  0  0  0  0  0  0  0  0  0  0  0
   56.4047   -3.5093   -7.1985 O   0  0  0  0  0  0  0  0  0  0  0  0
   55.4706   -5.0387   -9.8979 H   0  0  0  0  0  0  0  0  0  0  0  0
   54.2582   -3.9723   -7.8630 C   0  0  0  0  0  0  0  0  0  0  0  0
   53.5394   -2.9961   -8.5030 C   0  0  0  0  0  0  0  0  0  0  0  0
   52.1784   -2.8589   -8.3489 C   0  0  0  0  0  0  0  0  0  0  0  0
   51.4815   -3.7154   -7.5300 C   0  0  0  0  0  0  0  0  0  0  0  0
   52.2098   -4.6902   -6.8928 C   0  0  0  0  0  0  0  0  0  0  0  0
   53.5842   -4.8328   -7.0451 C   0  0  0  0  0  0  0  0  0  0  0  0
   50.0225   -3.5849   -7.3518 C   0  0  0  0  0  0  0  0  0  0  0  0
   49.6409   -3.6370   -5.9452 N   0  0  0  0  0  0  0  0  0  0  0  0
   48.8699   -2.7606   -5.2836 C   0  0  0  0  0  0  0  0  0  0  0  0
   48.7323   -3.1268   -4.0044 N   0  0  0  0  0  0  0  0  0  0  0  0
   49.4378   -4.2634   -3.8656 C   0  0  0  0  0  0  0  0  0  0  0  0
   49.9785   -4.5532   -5.0510 N   0  0  0  0  0  0  0  0  0  0  0  0
   61.2745   -6.5439   -9.4410 N   0  0  0  0  0  0  0  0  0  0  0  0
   62.0914   -6.0632   -9.9249 H   0  0  0  0  0  0  0  0  0  0  0  0
   61.4906   -7.6529   -8.6458 C   0  0  0  0  0  0  0  0  0  0  0  0
   61.8137   -7.4137   -7.3016 C   0  0  0  0  0  0  0  0  0  0  0  0
   62.0506   -8.4351   -6.4142 C   0  0  0  0  0  0  0  0  0  0  0  0
   61.9647   -9.7564   -6.8750 C   0  0  0  0  0  0  0  0  0  0  0  0
   62.1996  -10.7915   -5.9967 C   0  0  0  0  0  0  0  0  0  0  0  0
   62.1273  -12.1099   -6.4018 C   0  0  0  0  0  0  0  0  0  0  0  0
   61.8100  -12.3463   -7.7220 C   0  0  0  0  0  0  0  0  0  0  0  0
   61.5709  -11.3293   -8.6189 C   0  0  0  0  0  0  0  0  0  0  0  0
   61.6517  -10.0302   -8.1809 C   0  0  0  0  0  0  0  0  0  0  0  0
   61.4189   -8.9498   -9.0464 C   0  0  0  0  0  0  0  0  0  0  0  0
  6  7  1  0  0  0
  7  8  2  0  0  0
  7  1  1  0  0  0
  1  2  1  0  0  0
  2  3  2  0  0  0
  3 27  1  0  0  0
 27 29  1  0  0  0
 29 30  2  0  0  0
 30 31  1  0  0  0
 31 32  2  0  0  0
 32 33  1  0  0  0
 33 34  2  0  0  0
 34 35  1  0  0  0
 35 36  2  0  0  0
 36 37  1  0  0  0
 37 38  2  0  0  0
  3  4  1  0  0  0
  4  5  1  0  0  0
  5 11  1  0  0  0
 11 12  1  0  0  0
 12 13  2  0  0  0
 12 15  1  0  0  0
 15 16  2  0  0  0
 16 17  1  0  0  0
 17 18  2  0  0  0
 18 21  1  0  0  0
 21 22  1  0  0  0
 22 23  1  0  0  0
 23 24  2  0  0  0
 24 25  1  0  0  0
 25 26  2  0  0  0
 18 19  1  0  0  0
 19 20  2  0  0  0
  5  1  2  0  0  0
 20 15  1  0  0  0
 38 29  1  0  0  0
 26 22  1  0  0  0
 37 32  1  0  0  0
  6  9  1  0  0  0
  6 10  1  0  0  0
 27 28  1  0  0  0
 11 14  1  0  0  0
M  END
> <minimizedAffinity>
-9.78342

> <CNNscore>
0.4237550199

> <CNNaffinity>
6.4248552322

> <CNN_VS>
2.7225646973

> <CNNaffinity_variance>
0.1140114516

$$$$
[H]c1nc([H])n(C([H])([H])c2c([H])c([H])c(C(=O)N([H])c3sc(N([H])c4c([H])c([H])c5c([H])c([H])c([H])c([H])c5c4[H])nc3C(=O)N([H])[H])c([H])c2[H])n1


 38 42  0  0  0  0  0  0  0  0999 V2000
   58.2726   -4.9282  -10.7658 C   0  0  0  0  0  0  0  0  0  0  0  0
   59.4743   -5.4541  -10.7389 N   0  0  0  0  0  0  0  0  0  0  0  0
   59.9987   -5.9386   -9.6641 C   0  0  0  0  0  0  0  0  0  0  0  0
   58.7256   -5.6629   -8.5278 S   0  0  0  0  0  0  0  0  0  0  0  0
   57.5655   -4.9048   -9.6305 C   0  0  0  0  0  0  0  0  0  0  0  0
   57.1083   -2.9618  -11.8969 N   0  0  0  0  0  0  0  0  0  0  0  0
   57.8782   -4.1766  -12.0015 C   0  0  0  0  0  0  0  0  0  0  0  0
   58.1633   -4.5132  -13.1439 O   0  0  0  0  0  0  0  0  0  0  0  0
   57.5193   -2.1165  -12.3220 H   0  0  0  0  0  0  0  0  0  0  0  0
   56.2036   -2.9531  -11.4233 H   0  0  0  0  0  0  0  0  0  0  0  0
   56.2318   -4.6608   -9.2173 N   0  0  0  0  0  0  0  0  0  0  0  0
   55.7082   -4.0447   -8.0929 C   0  0  0  0  0  0  0  0  0  0  0  0
   56.3786   -3.5209   -7.1949 O   0  0  0  0  0  0  0  0  0  0  0  0
   55.4763   -5.0304   -9.9161 H   0  0  0  0  0  0  0  0  0  0  0  0
   54.2399   -3.9732   -7.8908 C   0  0  0  0  0  0  0  0  0  0  0  0
   53.5374   -2.9695   -8.5059 C   0  0  0  0  0  0  0  0  0  0  0  0
   52.1753   -2.8278   -8.3669 C   0  0  0  0  0  0  0  0  0  0  0  0
   51.4603   -3.7078   -7.5895 C   0  0  0  0  0  0  0  0  0  0  0  0
   52.1724   -4.7101   -6.9770 C   0  0  0  0  0  0  0  0  0  0  0  0
   53.5478   -4.8574   -7.1143 C   0  0  0  0  0  0  0  0  0  0  0  0
   49.9998   -3.5730   -7.4281 C   0  0  0  0  0  0  0  0  0  0  0  0
   49.6075   -3.5666   -6.0235 N   0  0  0  0  0  0  0  0  0  0  0  0
   48.8693   -2.6395   -5.3943 C   0  0  0  0  0  0  0  0  0  0  0  0
   48.7085   -2.9607   -4.1058 N   0  0  0  0  0  0  0  0  0  0  0  0
   49.3654   -4.1207   -3.9276 C   0  0  0  0  0  0  0  0  0  0  0  0
   49.9011   -4.4683   -5.0997 N   0  0  0  0  0  0  0  0  0  0  0  0
   61.2701   -6.5530   -9.3897 N   0  0  0  0  0  0  0  0  0  0  0  0
   62.0409   -5.8620   -9.1427 H   0  0  0  0  0  0  0  0  0  0  0  0
   61.5352   -7.9085   -9.4257 C   0  0  0  0  0  0  0  0  0  0  0  0
   62.1717   -8.3978  -10.5764 C   0  0  0  0  0  0  0  0  0  0  0  0
   62.4867   -9.7262  -10.7280 C   0  0  0  0  0  0  0  0  0  0  0  0
   62.1581  -10.6149   -9.6947 C   0  0  0  0  0  0  0  0  0  0  0  0
   62.4677  -11.9502   -9.8324 C   0  0  0  0  0  0  0  0  0  0  0  0
   62.1648  -12.8653   -8.8432 C   0  0  0  0  0  0  0  0  0  0  0  0
   61.5395  -12.3860   -7.7123 C   0  0  0  0  0  0  0  0  0  0  0  0
   61.2197  -11.0564   -7.5512 C   0  0  0  0  0  0  0  0  0  0  0  0
   61.5359  -10.1749   -8.5555 C   0  0  0  0  0  0  0  0  0  0  0  0
   61.2362   -8.8075   -8.4510 C   0  0  0  0  0  0  0  0  0  0  0  0
  6  7  1  0  0  0
  7  8  2  0  0  0
  7  1  1  0  0  0
  1  2  1  0  0  0
  2  3  2  0  0  0
  3 27  1  0  0  0
 27 29  1  0  0  0
 29 30  2  0  0  0
 30 31  1  0  0  0
 31 32  2  0  0  0
 32 33  1  0  0  0
 33 34  2  0  0  0
 34 35  1  0  0  0
 35 36  2  0  0  0
 36 37  1  0  0  0
 37 38  2  0  0  0
  3  4  1  0  0  0
  4  5  1  0  0  0
  5 11  1  0  0  0
 11 12  1  0  0  0
 12 13  2  0  0  0
 12 15  1  0  0  0
 15 16  2  0  0  0
 16 17  1  0  0  0
 17 18  2  0  0  0
 18 21  1  0  0  0
 21 22  1  0  0  0
 22 23  1  0  0  0
 23 24  2  0  0  0
 24 25  1  0  0  0
 25 26  2  0  0  0
 18 19  1  0  0  0
 19 20  2  0  0  0
  5  1  2  0  0  0
 20 15  1  0  0  0
 38 29  1  0  0  0
 26 22  1  0  0  0
 37 32  1  0  0  0
  6  9  1  0  0  0
  6 10  1  0  0  0
 27 28  1  0  0  0
 11 14  1  0  0  0
M  END
> <minimizedAffinity>
-9.90029

> <CNNscore>
0.4134001732

> <CNNaffinity>
6.1865744591

> <CNN_VS>
2.5575308800

> <CNNaffinity_variance>
0.2299809456

$$$$
[H]c1nc([H])n(C([H])([H])c2c([H])c([H])c(C(=O)N([H])c3sc(N([H])c4c([H])c([H])c5c([H])c([H])c([H])c([H])c5c4[H])nc3C(=O)N([H])[H])c([H])c2[H])n1


 38 42  0  0  0  0  0  0  0  0999 V2000
   56.7848   -4.1204  -11.5056 C   0  0  0  0  0  0  0  0  0  0  0  0
   55.6771   -3.4538  -11.2821 N   0  0  0  0  0  0  0  0  0  0  0  0
   55.0778   -3.4621  -10.1394 C   0  0  0  0  0  0  0  0  0  0  0  0
   56.1244   -4.4945   -9.2302 S   0  0  0  0  0  0  0  0  0  0  0  0
   57.3124   -4.8283  -10.5006 C   0  0  0  0  0  0  0  0  0  0  0  0
   58.3522   -3.4458  -13.4004 N   0  0  0  0  0  0  0  0  0  0  0  0
   57.2425   -4.2366  -12.9285 C   0  0  0  0  0  0  0  0  0  0  0  0
   56.7392   -4.9755  -13.7653 O   0  0  0  0  0  0  0  0  0  0  0  0
   59.1489   -3.9624  -13.8037 H   0  0  0  0  0  0  0  0  0  0  0  0
   58.3369   -2.4270  -13.3326 H   0  0  0  0  0  0  0  0  0  0  0  0
   58.5260   -5.4938  -10.1956 N   0  0  0  0  0  0  0  0  0  0  0  0
   59.2249   -5.6494   -9.0101 C   0  0  0  0  0  0  0  0  0  0  0  0
   58.8539   -5.2273   -7.9081 O   0  0  0  0  0  0  0  0  0  0  0  0
   58.9991   -5.9711  -11.0583 H   0  0  0  0  0  0  0  0  0  0  0  0
   60.5232   -6.3677   -8.9924 C   0  0  0  0  0  0  0  0  0  0  0  0
   60.8959   -7.0289   -7.8508 C   0  0  0  0  0  0  0  0  0  0  0  0
   62.0850   -7.7147   -7.7483 C   0  0  0  0  0  0  0  0  0  0  0  0
   62.9559   -7.7592   -8.8110 C   0  0  0  0  0  0  0  0  0  0  0  0
   62.5744   -7.0939   -9.9506 C   0  0  0  0  0  0  0  0  0  0  0  0
   61.3748   -6.4000  -10.0590 C   0  0  0  0  0  0  0  0  0  0  0  0
   64.2352   -8.4891   -8.7210 C   0  0  0  0  0  0  0  0  0  0  0  0
   64.8357   -8.3703   -7.3973 N   0  0  0  0  0  0  0  0  0  0  0  0
   65.2574   -9.3701   -6.6080 C   0  0  0  0  0  0  0  0  0  0  0  0
   65.7541   -8.8884   -5.4632 N   0  0  0  0  0  0  0  0  0  0  0  0
   65.6383   -7.5508   -5.5419 C   0  0  0  0  0  0  0  0  0  0  0  0
   65.0806   -7.2599   -6.7192 N   0  0  0  0  0  0  0  0  0  0  0  0
   53.8787   -2.8269   -9.6616 N   0  0  0  0  0  0  0  0  0  0  0  0
   53.6305   -1.9282  -10.1748 H   0  0  0  0  0  0  0  0  0  0  0  0
   53.0764   -3.2874   -8.6354 C   0  0  0  0  0  0  0  0  0  0  0  0
   51.8661   -2.6092   -8.4262 C   0  0  0  0  0  0  0  0  0  0  0  0
   50.9857   -2.9741   -7.4370 C   0  0  0  0  0  0  0  0  0  0  0  0
   51.3149   -4.0605   -6.6143 C   0  0  0  0  0  0  0  0  0  0  0  0
   50.4418   -4.4383   -5.6178 C   0  0  0  0  0  0  0  0  0  0  0  0
   50.7205   -5.5014   -4.7813 C   0  0  0  0  0  0  0  0  0  0  0  0
   51.9091   -6.1685   -4.9857 C   0  0  0  0  0  0  0  0  0  0  0  0
   52.7979   -5.8103   -5.9744 C   0  0  0  0  0  0  0  0  0  0  0  0
   52.4879   -4.7479   -6.7876 C   0  0  0  0  0  0  0  0  0  0  0  0
   53.3524   -4.3340   -7.8131 C   0  0  0  0  0  0  0  0  0  0  0  0
  6  7  1  0  0  0
  7  8  2  0  0  0
  7  1  1  0  0  0
  1  2  1  0  0  0
  2  3  2  0  0  0
  3 27  1  0  0  0
 27 29  1  0  0  0
 29 30  2  0  0  0
 30 31  1  0  0  0
 31 32  2  0  0  0
 32 33  1  0  0  0
 33 34  2  0  0  0
 34 35  1  0  0  0
 35 36  2  0  0  0
 36 37  1  0  0  0
 37 38  2  0  0  0
  3  4  1  0  0  0
  4  5  1  0  0  0
  5 11  1  0  0  0
 11 12  1  0  0  0
 12 13  2  0  0  0
 12 15  1  0  0  0
 15 16  2  0  0  0
 16 17  1  0  0  0
 17 18  2  0  0  0
 18 21  1  0  0  0
 21 22  1  0  0  0
 22 23  1  0  0  0
 23 24  2  0  0  0
 24 25  1  0  0  0
 25 26  2  0  0  0
 18 19  1  0  0  0
 19 20  2  0  0  0
  5  1  2  0  0  0
 20 15  1  0  0  0
 38 29  1  0  0  0
 26 22  1  0  0  0
 37 32  1  0  0  0
  6  9  1  0  0  0
  6 10  1  0  0  0
 27 28  1  0  0  0
 11 14  1  0  0  0
M  END
> <minimizedAffinity>
-8.97673

> <CNNscore>
0.3992887437

> <CNNaffinity>
6.6071519852

> <CNN_VS>
2.6381614208

> <CNNaffinity_variance>
0.0434920974

$$$$
[H]c1nc([H])n(C([H])([H])c2c([H])c([H])c(C(=O)N([H])c3sc(N([H])c4c([H])c([H])c5c([H])c([H])c([H])c([H])c5c4[H])nc3C(=O)N([H])[H])c([H])c2[H])n1


 38 42  0  0  0  0  0  0  0  0999 V2000
   56.5270   -5.3286   -7.6637 C   0  0  0  0  0  0  0  0  0  0  0  0
   57.5970   -5.3415   -8.4228 N   0  0  0  0  0  0  0  0  0  0  0  0
   57.5941   -4.9077   -9.6381 C   0  0  0  0  0  0  0  0  0  0  0  0
   55.9467   -4.4111   -9.8026 S   0  0  0  0  0  0  0  0  0  0  0  0
   55.3930   -4.8366   -8.1750 C   0  0  0  0  0  0  0  0  0  0  0  0
   55.4925   -6.9274   -5.9680 N   0  0  0  0  0  0  0  0  0  0  0  0
   56.5915   -6.0854   -6.3712 C   0  0  0  0  0  0  0  0  0  0  0  0
   57.5347   -6.0545   -5.5907 O   0  0  0  0  0  0  0  0  0  0  0  0
   55.7127   -7.9189   -5.7870 H   0  0  0  0  0  0  0  0  0  0  0  0
   54.5493   -6.5484   -5.8706 H   0  0  0  0  0  0  0  0  0  0  0  0
   54.1135   -4.4311   -7.7199 N   0  0  0  0  0  0  0  0  0  0  0  0
   53.0262   -3.8827   -8.3798 C   0  0  0  0  0  0  0  0  0  0  0  0
   52.9695   -3.6702   -9.5971 O   0  0  0  0  0  0  0  0  0  0  0  0
   53.9574   -4.5766   -6.6475 H   0  0  0  0  0  0  0  0  0  0  0  0
   51.8059   -3.5001   -7.6273 C   0  0  0  0  0  0  0  0  0  0  0  0
   51.2510   -2.2670   -7.8532 C   0  0  0  0  0  0  0  0  0  0  0  0
   50.1236   -1.8317   -7.1942 C   0  0  0  0  0  0  0  0  0  0  0  0
   49.5046   -2.6374   -6.2682 C   0  0  0  0  0  0  0  0  0  0  0  0
   50.0676   -3.8709   -6.0483 C   0  0  0  0  0  0  0  0  0  0  0  0
   51.2059   -4.3151   -6.7110 C   0  0  0  0  0  0  0  0  0  0  0  0
   48.2952   -2.1891   -5.5515 C   0  0  0  0  0  0  0  0  0  0  0  0
   47.9173   -3.1170   -4.4917 N   0  0  0  0  0  0  0  0  0  0  0  0
   48.7210   -3.9720   -3.8411 C   0  0  0  0  0  0  0  0  0  0  0  0
   48.0300   -4.6677   -2.9312 N   0  0  0  0  0  0  0  0  0  0  0  0
   46.7600   -4.2335   -3.0178 C   0  0  0  0  0  0  0  0  0  0  0  0
   46.7150   -3.2965   -3.9673 N   0  0  0  0  0  0  0  0  0  0  0  0
   58.6171   -4.8206  -10.6457 N   0  0  0  0  0  0  0  0  0  0  0  0
   59.5805   -5.1264  -10.3126 H   0  0  0  0  0  0  0  0  0  0  0  0
   58.4341   -4.3885  -11.9452 C   0  0  0  0  0  0  0  0  0  0  0  0
   59.5512   -3.8382  -12.5917 C   0  0  0  0  0  0  0  0  0  0  0  0
   59.4928   -3.3744  -13.8833 C   0  0  0  0  0  0  0  0  0  0  0  0
   58.2737   -3.4575  -14.5706 C   0  0  0  0  0  0  0  0  0  0  0  0
   58.1997   -2.9964  -15.8667 C   0  0  0  0  0  0  0  0  0  0  0  0
   57.0221   -3.0560  -16.5860 C   0  0  0  0  0  0  0  0  0  0  0  0
   55.9240   -3.5965  -15.9521 C   0  0  0  0  0  0  0  0  0  0  0  0
   55.9726   -4.0638  -14.6579 C   0  0  0  0  0  0  0  0  0  0  0  0
   57.1605   -3.9886  -13.9730 C   0  0  0  0  0  0  0  0  0  0  0  0
   57.2742   -4.4481  -12.6515 C   0  0  0  0  0  0  0  0  0  0  0  0
  6  7  1  0  0  0
  7  8  2  0  0  0
  7  1  1  0  0  0
  1  2  1  0  0  0
  2  3  2  0  0  0
  3 27  1  0  0  0
 27 29  1  0  0  0
 29 30  2  0  0  0
 30 31  1  0  0  0
 31 32  2  0  0  0
 32 33  1  0  0  0
 33 34  2  0  0  0
 34 35  1  0  0  0
 35 36  2  0  0  0
 36 37  1  0  0  0
 37 38  2  0  0  0
  3  4  1  0  0  0
  4  5  1  0  0  0
  5 11  1  0  0  0
 11 12  1  0  0  0
 12 13  2  0  0  0
 12 15  1  0  0  0
 15 16  2  0  0  0
 16 17  1  0  0  0
 17 18  2  0  0  0
 18 21  1  0  0  0
 21 22  1  0  0  0
 22 23  1  0  0  0
 23 24  2  0  0  0
 24 25  1  0  0  0
 25 26  2  0  0  0
 18 19  1  0  0  0
 19 20  2  0  0  0
  5  1  2  0  0  0
 20 15  1  0  0  0
 38 29  1  0  0  0
 26 22  1  0  0  0
 37 32  1  0  0  0
  6  9  1  0  0  0
  6 10  1  0  0  0
 27 28  1  0  0  0
 11 14  1  0  0  0
M  END
> <minimizedAffinity>
-8.59975

> <CNNscore>
0.3992859125

> <CNNaffinity>
6.7708878517

> <CNN_VS>
2.7035200596

> <CNNaffinity_variance>
0.0682893246

$$$$
[H]c1c([H])c(C(=O)N([H])c2c([H])c([H])c3c(c2[H])c(C([H])([H])C([H])([H])N(C([H])([H])[H])C([H])([H])[H])c([H])n3[H])c([H])c([H])c1F


 26 28  0  0  0  0  0  0  0  0999 V2000
   56.9478   -4.1802  -11.8359 C   0  0  0  0  0  0  0  0  0  0  0  0
   58.2028   -4.7245  -11.9158 C   0  0  0  0  0  0  0  0  0  0  0  0
   58.5406   -5.1201  -10.6783 N   0  0  0  0  0  0  0  0  0  0  0  0
   57.5347   -4.8427   -9.8115 C   0  0  0  0  0  0  0  0  0  0  0  0
   57.3773   -5.0391   -8.4626 C   0  0  0  0  0  0  0  0  0  0  0  0
   56.1950   -4.6395   -7.8151 C   0  0  0  0  0  0  0  0  0  0  0  0
   55.1592   -4.0474   -8.4761 C   0  0  0  0  0  0  0  0  0  0  0  0
   55.3681   -3.8664   -9.8611 C   0  0  0  0  0  0  0  0  0  0  0  0
   56.5128   -4.2481  -10.5116 C   0  0  0  0  0  0  0  0  0  0  0  0
   59.4188   -5.5781  -10.3454 H   0  0  0  0  0  0  0  0  0  0  0  0
   53.9331   -3.6297   -7.9121 N   0  0  0  0  0  0  0  0  0  0  0  0
   52.8621   -4.4522   -7.6166 C   0  0  0  0  0  0  0  0  0  0  0  0
   52.8600   -5.6811   -7.8269 O   0  0  0  0  0  0  0  0  0  0  0  0
   53.7956   -2.5858   -7.6856 H   0  0  0  0  0  0  0  0  0  0  0  0
   51.6253   -3.9087   -7.0192 C   0  0  0  0  0  0  0  0  0  0  0  0
   50.9696   -2.8135   -7.5226 C   0  0  0  0  0  0  0  0  0  0  0  0
   49.7959   -2.3709   -6.8986 C   0  0  0  0  0  0  0  0  0  0  0  0
   49.2760   -2.9997   -5.7932 C   0  0  0  0  0  0  0  0  0  0  0  0
   48.1492   -2.6115   -5.1575 F   0  0  0  0  0  0  0  0  0  0  0  0
   49.9446   -4.0935   -5.3028 C   0  0  0  0  0  0  0  0  0  0  0  0
   51.1034   -4.5437   -5.9056 C   0  0  0  0  0  0  0  0  0  0  0  0
   56.1459   -3.6083  -12.9134 C   0  0  0  0  0  0  0  0  0  0  0  0
   56.4177   -4.2054  -14.2673 C   0  0  0  0  0  0  0  0  0  0  0  0
   56.0738   -3.6171  -16.5258 C   0  0  0  0  0  0  0  0  0  0  0  0
   56.6976   -3.2226  -15.2760 N   0  0  0  0  0  0  0  0  0  0  0  0
   58.1453   -3.2310  -15.5403 C   0  0  0  0  0  0  0  0  0  0  0  0
 24 25  1  0  0  0
 25 26  1  0  0  0
 25 23  1  0  0  0
 23 22  1  0  0  0
 22  1  1  0  0  0
  1  2  2  0  0  0
  2  3  1  0  0  0
  3  4  1  0  0  0
  4  5  2  0  0  0
  5  6  1  0  0  0
  6  7  2  0  0  0
  7 11  1  0  0  0
 11 12  1  0  0  0
 12 13  2  0  0  0
 12 15  1  0  0  0
 15 16  2  0  0  0
 16 17  1  0  0  0
 17 18  2  0  0  0
 18 19  1  0  0  0
 18 20  1  0  0  0
 20 21  2  0  0  0
  7  8  1  0  0  0
  8  9  2  0  0  0
  9  1  1  0  0  0
  9  4  1  0  0  0
 21 15  1  0  0  0
  3 10  1  0  0  0
 11 14  1  0  0  0
M  END
> <minimizedAffinity>
-9.81815

> <CNNscore>
0.5386297107

> <CNNaffinity>
5.9770669937

> <CNN_VS>
3.2194259167

> <CNNaffinity_variance>
0.0538970120

$$$$
[H]c1c([H])c(C(=O)N([H])c2c([H])c([H])c3c(c2[H])c(C([H])([H])C([H])([H])N(C([H])([H])[H])C([H])([H])[H])c([H])n3[H])c([H])c([H])c1F


 26 28  0  0  0  0  0  0  0  0999 V2000
   50.4707   -4.2994   -6.2947 C   0  0  0  0  0  0  0  0  0  0  0  0
   49.3698   -3.5122   -6.5097 C   0  0  0  0  0  0  0  0  0  0  0  0
   49.7201   -2.5827   -7.4126 N   0  0  0  0  0  0  0  0  0  0  0  0
   51.0146   -2.7559   -7.7791 C   0  0  0  0  0  0  0  0  0  0  0  0
   51.8402   -2.0913   -8.6506 C   0  0  0  0  0  0  0  0  0  0  0  0
   53.1711   -2.5066   -8.8321 C   0  0  0  0  0  0  0  0  0  0  0  0
   53.7060   -3.5709   -8.1675 C   0  0  0  0  0  0  0  0  0  0  0  0
   52.8185   -4.2218   -7.2824 C   0  0  0  0  0  0  0  0  0  0  0  0
   51.5180   -3.8330   -7.0904 C   0  0  0  0  0  0  0  0  0  0  0  0
   49.1493   -1.8102   -7.8242 H   0  0  0  0  0  0  0  0  0  0  0  0
   55.0223   -4.0668   -8.2988 N   0  0  0  0  0  0  0  0  0  0  0  0
   55.6948   -4.2574   -9.4914 C   0  0  0  0  0  0  0  0  0  0  0  0
   55.1977   -4.0123  -10.6082 O   0  0  0  0  0  0  0  0  0  0  0  0
   55.5692   -4.3276   -7.4084 H   0  0  0  0  0  0  0  0  0  0  0  0
   57.0775   -4.7766   -9.5126 C   0  0  0  0  0  0  0  0  0  0  0  0
   57.7381   -5.1927   -8.3842 C   0  0  0  0  0  0  0  0  0  0  0  0
   59.0463   -5.6813   -8.4969 C   0  0  0  0  0  0  0  0  0  0  0  0
   59.6943   -5.7584   -9.7060 C   0  0  0  0  0  0  0  0  0  0  0  0
   60.9531   -6.2213   -9.8657 F   0  0  0  0  0  0  0  0  0  0  0  0
   59.0188   -5.3378  -10.8245 C   0  0  0  0  0  0  0  0  0  0  0  0
   57.7284   -4.8533  -10.7317 C   0  0  0  0  0  0  0  0  0  0  0  0
   50.5951   -5.4454   -5.3990 C   0  0  0  0  0  0  0  0  0  0  0  0
   50.3999   -5.1146   -3.9445 C   0  0  0  0  0  0  0  0  0  0  0  0
   52.5573   -6.0689   -3.9489 C   0  0  0  0  0  0  0  0  0  0  0  0
   51.5355   -5.4433   -3.1296 N   0  0  0  0  0  0  0  0  0  0  0  0
   51.1263   -6.4717   -2.1597 C   0  0  0  0  0  0  0  0  0  0  0  0
 24 25  1  0  0  0
 25 26  1  0  0  0
 25 23  1  0  0  0
 23 22  1  0  0  0
 22  1  1  0  0  0
  1  2  2  0  0  0
  2  3  1  0  0  0
  3  4  1  0  0  0
  4  5  2  0  0  0
  5  6  1  0  0  0
  6  7  2  0  0  0
  7 11  1  0  0  0
 11 12  1  0  0  0
 12 13  2  0  0  0
 12 15  1  0  0  0
 15 16  2  0  0  0
 16 17  1  0  0  0
 17 18  2  0  0  0
 18 19  1  0  0  0
 18 20  1  0  0  0
 20 21  2  0  0  0
  7  8  1  0  0  0
  8  9  2  0  0  0
  9  1  1  0  0  0
  9  4  1  0  0  0
 21 15  1  0  0  0
  3 10  1  0  0  0
 11 14  1  0  0  0
M  END
> <minimizedAffinity>
-9.02330

> <CNNscore>
0.4306116402

> <CNNaffinity>
6.2696924210

> <CNN_VS>
2.6998026371

> <CNNaffinity_variance>
0.0265662130

$$$$
[H]c1c([H])c(C(=O)N([H])c2c([H])c([H])c3c(c2[H])c(C([H])([H])C([H])([H])N(C([H])([H])[H])C([H])([H])[H])c([H])n3[H])c([H])c([H])c1F


 26 28  0  0  0  0  0  0  0  0999 V2000
   56.6635   -3.6958  -13.9257 C   0  0  0  0  0  0  0  0  0  0  0  0
   57.9748   -3.3840  -14.1725 C   0  0  0  0  0  0  0  0  0  0  0  0
   58.5892   -3.2928  -12.9825 N   0  0  0  0  0  0  0  0  0  0  0  0
   57.7049   -3.5380  -11.9835 C   0  0  0  0  0  0  0  0  0  0  0  0
   57.8184   -3.5692  -10.6163 C   0  0  0  0  0  0  0  0  0  0  0  0
   56.7019   -3.8596   -9.8127 C   0  0  0  0  0  0  0  0  0  0  0  0
   55.4692   -4.1219  -10.3344 C   0  0  0  0  0  0  0  0  0  0  0  0
   55.4024   -4.0777  -11.7445 C   0  0  0  0  0  0  0  0  0  0  0  0
   56.4783   -3.7963  -12.5461 C   0  0  0  0  0  0  0  0  0  0  0  0
   59.5877   -3.0726  -12.7672 H   0  0  0  0  0  0  0  0  0  0  0  0
   54.3000   -4.4377   -9.6070 N   0  0  0  0  0  0  0  0  0  0  0  0
   54.2649   -4.9449   -8.3215 C   0  0  0  0  0  0  0  0  0  0  0  0
   55.2869   -5.1906   -7.6508 O   0  0  0  0  0  0  0  0  0  0  0  0
   53.3416   -4.2806  -10.0724 H   0  0  0  0  0  0  0  0  0  0  0  0
   52.9811   -5.2333   -7.6503 C   0  0  0  0  0  0  0  0  0  0  0  0
   52.3288   -6.4348   -7.7671 C   0  0  0  0  0  0  0  0  0  0  0  0
   51.1190   -6.6267   -7.0872 C   0  0  0  0  0  0  0  0  0  0  0  0
   50.5600   -5.6470   -6.3028 C   0  0  0  0  0  0  0  0  0  0  0  0
   49.3977   -5.7840   -5.6285 F   0  0  0  0  0  0  0  0  0  0  0  0
   51.2257   -4.4512   -6.1971 C   0  0  0  0  0  0  0  0  0  0  0  0
   52.4197   -4.2448   -6.8607 C   0  0  0  0  0  0  0  0  0  0  0  0
   55.5907   -3.9007  -14.8943 C   0  0  0  0  0  0  0  0  0  0  0  0
   55.7767   -5.1072  -15.7736 C   0  0  0  0  0  0  0  0  0  0  0  0
   57.1914   -6.9419  -16.2178 C   0  0  0  0  0  0  0  0  0  0  0  0
   56.5960   -6.1242  -15.1769 N   0  0  0  0  0  0  0  0  0  0  0  0
   55.7238   -7.0326  -14.4153 C   0  0  0  0  0  0  0  0  0  0  0  0
 24 25  1  0  0  0
 25 26  1  0  0  0
 25 23  1  0  0  0
 23 22  1  0  0  0
 22  1  1  0  0  0
  1  2  2  0  0  0
  2  3  1  0  0  0
  3  4  1  0  0  0
  4  5  2  0  0  0
  5  6  1  0  0  0
  6  7  2  0  0  0
  7 11  1  0  0  0
 11 12  1  0  0  0
 12 13  2  0  0  0
 12 15  1  0  0  0
 15 16  2  0  0  0
 16 17  1  0  0  0
 17 18  2  0  0  0
 18 19  1  0  0  0
 18 20  1  0  0  0
 20 21  2  0  0  0
  7  8  1  0  0  0
  8  9  2  0  0  0
  9  1  1  0  0  0
  9  4  1  0  0  0
 21 15  1  0  0  0
  3 10  1  0  0  0
 11 14  1  0  0  0
M  END
> <minimizedAffinity>
0.73296

> <CNNscore>
0.4164908528

> <CNNaffinity>
5.5789422989

> <CNN_VS>
2.3235783577

> <CNNaffinity_variance>
0.3009991646

$$$$
[H]c1c([H])c(C(=O)N([H])c2c([H])c([H])c3c(c2[H])c(C([H])([H])C([H])([H])N(C([H])([H])[H])C([H])([H])[H])c([H])n3[H])c([H])c([H])c1F


 26 28  0  0  0  0  0  0  0  0999 V2000
   50.4338   -5.1110   -4.3354 C   0  0  0  0  0  0  0  0  0  0  0  0
   49.2707   -4.5983   -3.8233 C   0  0  0  0  0  0  0  0  0  0  0  0
   48.8929   -3.5949   -4.6310 N   0  0  0  0  0  0  0  0  0  0  0  0
   49.7838   -3.4539   -5.6443 C   0  0  0  0  0  0  0  0  0  0  0  0
   49.8609   -2.5978   -6.7138 C   0  0  0  0  0  0  0  0  0  0  0  0
   50.9272   -2.6874   -7.6258 C   0  0  0  0  0  0  0  0  0  0  0  0
   51.9237   -3.6106   -7.5030 C   0  0  0  0  0  0  0  0  0  0  0  0
   51.8009   -4.4682   -6.3875 C   0  0  0  0  0  0  0  0  0  0  0  0
   50.7701   -4.3974   -5.4865 C   0  0  0  0  0  0  0  0  0  0  0  0
   48.0589   -2.9688   -4.5648 H   0  0  0  0  0  0  0  0  0  0  0  0
   53.0203   -3.7830   -8.3768 N   0  0  0  0  0  0  0  0  0  0  0  0
   54.2972   -4.1564   -8.0011 C   0  0  0  0  0  0  0  0  0  0  0  0
   54.6288   -4.3807   -6.8203 O   0  0  0  0  0  0  0  0  0  0  0  0
   52.8753   -3.6132   -9.4304 H   0  0  0  0  0  0  0  0  0  0  0  0
   55.3711   -4.3150   -9.0027 C   0  0  0  0  0  0  0  0  0  0  0  0
   55.2089   -4.0048  -10.3295 C   0  0  0  0  0  0  0  0  0  0  0  0
   56.2849   -4.1767  -11.2100 C   0  0  0  0  0  0  0  0  0  0  0  0
   57.5045   -4.6482  -10.7878 C   0  0  0  0  0  0  0  0  0  0  0  0
   58.5704   -4.8306  -11.5970 F   0  0  0  0  0  0  0  0  0  0  0  0
   57.6493   -4.9537   -9.4575 C   0  0  0  0  0  0  0  0  0  0  0  0
   56.5988   -4.7902   -8.5753 C   0  0  0  0  0  0  0  0  0  0  0  0
   51.2357   -6.2141   -3.8145 C   0  0  0  0  0  0  0  0  0  0  0  0
   52.2522   -5.8039   -2.7842 C   0  0  0  0  0  0  0  0  0  0  0  0
   53.9053   -6.7049   -4.2056 C   0  0  0  0  0  0  0  0  0  0  0  0
   53.5640   -5.5983   -3.3306 N   0  0  0  0  0  0  0  0  0  0  0  0
   54.5378   -5.6549   -2.2286 C   0  0  0  0  0  0  0  0  0  0  0  0
 24 25  1  0  0  0
 25 26  1  0  0  0
 25 23  1  0  0  0
 23 22  1  0  0  0
 22  1  1  0  0  0
  1  2  2  0  0  0
  2  3  1  0  0  0
  3  4  1  0  0  0
  4  5  2  0  0  0
  5  6  1  0  0  0
  6  7  2  0  0  0
  7 11  1  0  0  0
 11 12  1  0  0  0
 12 13  2  0  0  0
 12 15  1  0  0  0
 15 16  2  0  0  0
 16 17  1  0  0  0
 17 18  2  0  0  0
 18 19  1  0  0  0
 18 20  1  0  0  0
 20 21  2  0  0  0
  7  8  1  0  0  0
  8  9  2  0  0  0
  9  1  1  0  0  0
  9  4  1  0  0  0
 21 15  1  0  0  0
  3 10  1  0  0  0
 11 14  1  0  0  0
M  END
> <minimizedAffinity>
-9.60885

> <CNNscore>
0.3720617592

> <CNNaffinity>
6.3077564240

> <CNN_VS>
2.3468749523

> <CNNaffinity_variance>
0.0687566325

$$$$
[H]c1c([H])c(C(=O)N([H])c2c([H])c([H])c3c(c2[H])c(C([H])([H])C([H])([H])N(C([H])([H])[H])C([H])([H])[H])c([H])n3[H])c([H])c([H])c1F


 26 28  0  0  0  0  0  0  0  0999 V2000
   53.2730   -3.9018   -8.3600 C   0  0  0  0  0  0  0  0  0  0  0  0
   53.2240   -3.2146   -9.5446 C   0  0  0  0  0  0  0  0  0  0  0  0
   54.4522   -3.2695  -10.0833 N   0  0  0  0  0  0  0  0  0  0  0  0
   55.2832   -3.9731   -9.2743 C   0  0  0  0  0  0  0  0  0  0  0  0
   56.6095   -4.3141   -9.3595 C   0  0  0  0  0  0  0  0  0  0  0  0
   57.2200   -5.0704   -8.3436 C   0  0  0  0  0  0  0  0  0  0  0  0
   56.5436   -5.4997   -7.2397 C   0  0  0  0  0  0  0  0  0  0  0  0
   55.1828   -5.1239   -7.1969 C   0  0  0  0  0  0  0  0  0  0  0  0
   54.5685   -4.3868   -8.1760 C   0  0  0  0  0  0  0  0  0  0  0  0
   54.8013   -2.8628  -10.9804 H   0  0  0  0  0  0  0  0  0  0  0  0
   57.0696   -6.2742   -6.1817 N   0  0  0  0  0  0  0  0  0  0  0  0
   56.5292   -6.3756   -4.9133 C   0  0  0  0  0  0  0  0  0  0  0  0
   55.4972   -5.7747   -4.5552 O   0  0  0  0  0  0  0  0  0  0  0  0
   57.9689   -6.8418   -6.3520 H   0  0  0  0  0  0  0  0  0  0  0  0
   57.1599   -7.2238   -3.8814 C   0  0  0  0  0  0  0  0  0  0  0  0
   58.4982   -7.5265   -3.8768 C   0  0  0  0  0  0  0  0  0  0  0  0
   59.0152   -8.3310   -2.8530 C   0  0  0  0  0  0  0  0  0  0  0  0
   58.2232   -8.8304   -1.8475 C   0  0  0  0  0  0  0  0  0  0  0  0
   58.6742   -9.6091   -0.8402 F   0  0  0  0  0  0  0  0  0  0  0  0
   56.8868   -8.5180   -1.8676 C   0  0  0  0  0  0  0  0  0  0  0  0
   56.3600   -7.7259   -2.8695 C   0  0  0  0  0  0  0  0  0  0  0  0
   52.1915   -4.1253   -7.4052 C   0  0  0  0  0  0  0  0  0  0  0  0
   51.1284   -3.0609   -7.4183 C   0  0  0  0  0  0  0  0  0  0  0  0
   49.3091   -2.8764   -5.9279 C   0  0  0  0  0  0  0  0  0  0  0  0
   49.8201   -3.5607   -7.1015 N   0  0  0  0  0  0  0  0  0  0  0  0
   49.9476   -4.9729   -6.7077 C   0  0  0  0  0  0  0  0  0  0  0  0
 24 25  1  0  0  0
 25 26  1  0  0  0
 25 23  1  0  0  0
 23 22  1  0  0  0
 22  1  1  0  0  0
  1  2  2  0  0  0
  2  3  1  0  0  0
  3  4  1  0  0  0
  4  5  2  0  0  0
  5  6  1  0  0  0
  6  7  2  0  0  0
  7 11  1  0  0  0
 11 12  1  0  0  0
 12 13  2  0  0  0
 12 15  1  0  0  0
 15 16  2  0  0  0
 16 17  1  0  0  0
 17 18  2  0  0  0
 18 19  1  0  0  0
 18 20  1  0  0  0
 20 21  2  0  0  0
  7  8  1  0  0  0
  8  9  2  0  0  0
  9  1  1  0  0  0
  9  4  1  0  0  0
 21 15  1  0  0  0
  3 10  1  0  0  0
 11 14  1  0  0  0
M  END
> <minimizedAffinity>
-8.02489

> <CNNscore>
0.3630917966

> <CNNaffinity>
6.0399055481

> <CNN_VS>
2.1930401325

> <CNNaffinity_variance>
0.0521304831

$$$$
[H]c1c([H])c(C(=O)N([H])c2c([H])c([H])c3c(c2[H])c(C([H])([H])C([H])([H])N(C([H])([H])[H])C([H])([H])[H])c([H])n3[H])c([H])c([H])c1F


 26 28  0  0  0  0  0  0  0  0999 V2000
   54.3752   -4.4135   -8.2022 C   0  0  0  0  0  0  0  0  0  0  0  0
   53.5681   -3.7316   -9.0748 C   0  0  0  0  0  0  0  0  0  0  0  0
   54.2869   -3.5117  -10.1870 N   0  0  0  0  0  0  0  0  0  0  0  0
   55.5306   -4.0350  -10.0470 C   0  0  0  0  0  0  0  0  0  0  0  0
   56.6273   -4.0817  -10.8704 C   0  0  0  0  0  0  0  0  0  0  0  0
   57.8130   -4.7074  -10.4471 C   0  0  0  0  0  0  0  0  0  0  0  0
   57.9383   -5.2918   -9.2210 C   0  0  0  0  0  0  0  0  0  0  0  0
   56.7843   -5.2178   -8.4101 C   0  0  0  0  0  0  0  0  0  0  0  0
   55.6189   -4.6123   -8.8033 C   0  0  0  0  0  0  0  0  0  0  0  0
   54.0112   -3.0235  -11.0687 H   0  0  0  0  0  0  0  0  0  0  0  0
   59.0811   -5.9542   -8.7199 N   0  0  0  0  0  0  0  0  0  0  0  0
   60.2273   -6.2364   -9.4394 C   0  0  0  0  0  0  0  0  0  0  0  0
   60.3775   -5.9350  -10.6399 O   0  0  0  0  0  0  0  0  0  0  0  0
   59.0836   -6.2787   -7.6930 H   0  0  0  0  0  0  0  0  0  0  0  0
   61.3703   -6.9299   -8.8115 C   0  0  0  0  0  0  0  0  0  0  0  0
   61.4360   -8.2939   -8.6769 C   0  0  0  0  0  0  0  0  0  0  0  0
   62.5635   -8.8698   -8.0771 C   0  0  0  0  0  0  0  0  0  0  0  0
   63.6120   -8.1109   -7.6162 C   0  0  0  0  0  0  0  0  0  0  0  0
   64.7188   -8.6188   -7.0318 F   0  0  0  0  0  0  0  0  0  0  0  0
   63.5298   -6.7482   -7.7587 C   0  0  0  0  0  0  0  0  0  0  0  0
   62.4254   -6.1635   -8.3478 C   0  0  0  0  0  0  0  0  0  0  0  0
   54.0522   -4.8811   -6.8575 C   0  0  0  0  0  0  0  0  0  0  0  0
   52.7268   -5.5850   -6.7519 C   0  0  0  0  0  0  0  0  0  0  0  0
   50.9558   -6.0180   -5.2548 C   0  0  0  0  0  0  0  0  0  0  0  0
   51.8490   -5.0003   -5.7776 N   0  0  0  0  0  0  0  0  0  0  0  0
   50.9799   -4.0297   -6.4619 C   0  0  0  0  0  0  0  0  0  0  0  0
 24 25  1  0  0  0
 25 26  1  0  0  0
 25 23  1  0  0  0
 23 22  1  0  0  0
 22  1  1  0  0  0
  1  2  2  0  0  0
  2  3  1  0  0  0
  3  4  1  0  0  0
  4  5  2  0  0  0
  5  6  1  0  0  0
  6  7  2  0  0  0
  7 11  1  0  0  0
 11 12  1  0  0  0
 12 13  2  0  0  0
 12 15  1  0  0  0
 15 16  2  0  0  0
 16 17  1  0  0  0
 17 18  2  0  0  0
 18 19  1  0  0  0
 18 20  1  0  0  0
 20 21  2  0  0  0
  7  8  1  0  0  0
  8  9  2  0  0  0
  9  1  1  0  0  0
  9  4  1  0  0  0
 21 15  1  0  0  0
  3 10  1  0  0  0
 11 14  1  0  0  0
M  END
> <minimizedAffinity>
-7.66681

> <CNNscore>
0.3446969986

> <CNNaffinity>
5.5991525650

> <CNN_VS>
1.9300110340

> <CNNaffinity_variance>
0.1071621403

$$$$
[H]c1c([H])c(C(=O)N([H])c2c([H])c([H])c3c(c2[H])c(C([H])([H])C([H])([H])N(C([H])([H])[H])C([H])([H])[H])c([H])n3[H])c([H])c([H])c1F


 26 28  0  0  0  0  0  0  0  0999 V2000
   61.8219   -7.1701   -8.7853 C   0  0  0  0  0  0  0  0  0  0  0  0
   61.7381   -7.3317   -7.4271 C   0  0  0  0  0  0  0  0  0  0  0  0
   60.5731   -6.7908   -7.0368 N   0  0  0  0  0  0  0  0  0  0  0  0
   59.9119   -6.2887   -8.1095 C   0  0  0  0  0  0  0  0  0  0  0  0
   58.7077   -5.6468   -8.2536 C   0  0  0  0  0  0  0  0  0  0  0  0
   58.2674   -5.2290   -9.5218 C   0  0  0  0  0  0  0  0  0  0  0  0
   58.9956   -5.4338  -10.6568 C   0  0  0  0  0  0  0  0  0  0  0  0
   60.2265   -6.0972  -10.4578 C   0  0  0  0  0  0  0  0  0  0  0  0
   60.6744   -6.5123   -9.2305 C   0  0  0  0  0  0  0  0  0  0  0  0
   60.1615   -6.7235   -6.0787 H   0  0  0  0  0  0  0  0  0  0  0  0
   58.6260   -5.0639  -11.9692 N   0  0  0  0  0  0  0  0  0  0  0  0
   57.9497   -3.9102  -12.3193 C   0  0  0  0  0  0  0  0  0  0  0  0
   57.5781   -3.0532  -11.4935 O   0  0  0  0  0  0  0  0  0  0  0  0
   58.8797   -5.7210  -12.7839 H   0  0  0  0  0  0  0  0  0  0  0  0
   57.6190   -3.6182  -13.7290 C   0  0  0  0  0  0  0  0  0  0  0  0
   58.5525   -3.2079  -14.6472 C   0  0  0  0  0  0  0  0  0  0  0  0
   58.1531   -2.9622  -15.9674 C   0  0  0  0  0  0  0  0  0  0  0  0
   56.8509   -3.1189  -16.3766 C   0  0  0  0  0  0  0  0  0  0  0  0
   56.4177   -2.8950  -17.6361 F   0  0  0  0  0  0  0  0  0  0  0  0
   55.9302   -3.5298  -15.4451 C   0  0  0  0  0  0  0  0  0  0  0  0
   56.3065   -3.7766  -14.1390 C   0  0  0  0  0  0  0  0  0  0  0  0
   62.9000   -7.5900   -9.6754 C   0  0  0  0  0  0  0  0  0  0  0  0
   63.6755   -6.4529  -10.2829 C   0  0  0  0  0  0  0  0  0  0  0  0
   65.7531   -5.9620  -11.2868 C   0  0  0  0  0  0  0  0  0  0  0  0
   65.0980   -6.6079  -10.1641 N   0  0  0  0  0  0  0  0  0  0  0  0
   65.4195   -8.0382  -10.2923 C   0  0  0  0  0  0  0  0  0  0  0  0
 24 25  1  0  0  0
 25 26  1  0  0  0
 25 23  1  0  0  0
 23 22  1  0  0  0
 22  1  1  0  0  0
  1  2  2  0  0  0
  2  3  1  0  0  0
  3  4  1  0  0  0
  4  5  2  0  0  0
  5  6  1  0  0  0
  6  7  2  0  0  0
  7 11  1  0  0  0
 11 12  1  0  0  0
 12 13  2  0  0  0
 12 15  1  0  0  0
 15 16  2  0  0  0
 16 17  1  0  0  0
 17 18  2  0  0  0
 18 19  1  0  0  0
 18 20  1  0  0  0
 20 21  2  0  0  0
  7  8  1  0  0  0
  8  9  2  0  0  0
  9  1  1  0  0  0
  9  4  1  0  0  0
 21 15  1  0  0  0
  3 10  1  0  0  0
 11 14  1  0  0  0
M  END
> <minimizedAffinity>
-2.22295

> <CNNscore>
0.3195091486

> <CNNaffinity>
4.2505583763

> <CNN_VS>
1.3580923080

> <CNNaffinity_variance>
0.0268399380

$$$$
[H]c1c([H])c(C(=O)N([H])c2c([H])c([H])c3c(c2[H])c(C([H])([H])C([H])([H])N(C([H])([H])[H])C([H])([H])[H])c([H])n3[H])c([H])c([H])c1F


 26 28  0  0  0  0  0  0  0  0999 V2000
   61.7722   -7.5540   -8.7736 C   0  0  0  0  0  0  0  0  0  0  0  0
   61.7223   -7.6824   -7.4102 C   0  0  0  0  0  0  0  0  0  0  0  0
   60.6471   -6.9979   -6.9888 N   0  0  0  0  0  0  0  0  0  0  0  0
   60.0101   -6.4366   -8.0468 C   0  0  0  0  0  0  0  0  0  0  0  0
   58.8875   -5.6557   -8.1599 C   0  0  0  0  0  0  0  0  0  0  0  0
   58.4520   -5.2080   -9.4195 C   0  0  0  0  0  0  0  0  0  0  0  0
   59.1056   -5.5179  -10.5759 C   0  0  0  0  0  0  0  0  0  0  0  0
   60.2542   -6.3225  -10.4084 C   0  0  0  0  0  0  0  0  0  0  0  0
   60.6961   -6.7691   -9.1900 C   0  0  0  0  0  0  0  0  0  0  0  0
   60.2841   -6.8658   -6.0179 H   0  0  0  0  0  0  0  0  0  0  0  0
   58.7326   -5.1270  -11.8813 N   0  0  0  0  0  0  0  0  0  0  0  0
   58.2575   -3.8802  -12.2426 C   0  0  0  0  0  0  0  0  0  0  0  0
   58.0969   -2.9445  -11.4344 O   0  0  0  0  0  0  0  0  0  0  0  0
   58.8144   -5.8443  -12.6805 H   0  0  0  0  0  0  0  0  0  0  0  0
   57.9029   -3.5759  -13.6439 C   0  0  0  0  0  0  0  0  0  0  0  0
   58.8372   -3.2878  -14.6067 C   0  0  0  0  0  0  0  0  0  0  0  0
   58.4130   -3.0204  -15.9149 C   0  0  0  0  0  0  0  0  0  0  0  0
   57.0855   -3.0370  -16.2688 C   0  0  0  0  0  0  0  0  0  0  0  0
   56.6278   -2.7865  -17.5146 F   0  0  0  0  0  0  0  0  0  0  0  0
   56.1644   -3.3270  -15.2933 C   0  0  0  0  0  0  0  0  0  0  0  0
   56.5650   -3.5930  -13.9982 C   0  0  0  0  0  0  0  0  0  0  0  0
   62.7564   -8.1159   -9.6937 C   0  0  0  0  0  0  0  0  0  0  0  0
   64.0374   -8.5507   -9.0354 C   0  0  0  0  0  0  0  0  0  0  0  0
   65.7497  -10.0277   -9.7073 C   0  0  0  0  0  0  0  0  0  0  0  0
   64.3653   -9.9264   -9.2835 N   0  0  0  0  0  0  0  0  0  0  0  0
   63.5689  -10.3919  -10.4302 C   0  0  0  0  0  0  0  0  0  0  0  0
 24 25  1  0  0  0
 25 26  1  0  0  0
 25 23  1  0  0  0
 23 22  1  0  0  0
 22  1  1  0  0  0
  1  2  2  0  0  0
  2  3  1  0  0  0
  3  4  1  0  0  0
  4  5  2  0  0  0
  5  6  1  0  0  0
  6  7  2  0  0  0
  7 11  1  0  0  0
 11 12  1  0  0  0
 12 13  2  0  0  0
 12 15  1  0  0  0
 15 16  2  0  0  0
 16 17  1  0  0  0
 17 18  2  0  0  0
 18 19  1  0  0  0
 18 20  1  0  0  0
 20 21  2  0  0  0
  7  8  1  0  0  0
  8  9  2  0  0  0
  9  1  1  0  0  0
  9  4  1  0  0  0
 21 15  1  0  0  0
  3 10  1  0  0  0
 11 14  1  0  0  0
M  END
> <minimizedAffinity>
-1.39379

> <CNNscore>
0.3138057888

> <CNNaffinity>
4.2009477615

> <CNN_VS>
1.3182817698

> <CNNaffinity_variance>
0.1718143523

$$$$
[H]c1c([H])c(C(=O)N([H])c2c([H])c([H])c3c(c2[H])c(C([H])([H])C([H])([H])N(C([H])([H])[H])C([H])([H])[H])c([H])n3[H])c([H])c([H])c1F


 26 28  0  0  0  0  0  0  0  0999 V2000
   54.5640   -4.4350   -8.3620 C   0  0  0  0  0  0  0  0  0  0  0  0
   53.7515   -3.8261   -9.2824 C   0  0  0  0  0  0  0  0  0  0  0  0
   54.4794   -3.6518  -10.3967 N   0  0  0  0  0  0  0  0  0  0  0  0
   55.7342   -4.1330  -10.2117 C   0  0  0  0  0  0  0  0  0  0  0  0
   56.8427   -4.1980  -11.0178 C   0  0  0  0  0  0  0  0  0  0  0  0
   58.0383   -4.7667  -10.5447 C   0  0  0  0  0  0  0  0  0  0  0  0
   58.1620   -5.2759   -9.2853 C   0  0  0  0  0  0  0  0  0  0  0  0
   56.9956   -5.1859   -8.4941 C   0  0  0  0  0  0  0  0  0  0  0  0
   55.8204   -4.6351   -8.9356 C   0  0  0  0  0  0  0  0  0  0  0  0
   54.2031   -3.2227  -11.3085 H   0  0  0  0  0  0  0  0  0  0  0  0
   59.3146   -5.8779   -8.7330 N   0  0  0  0  0  0  0  0  0  0  0  0
   60.4550   -6.2243   -9.4332 C   0  0  0  0  0  0  0  0  0  0  0  0
   60.5905   -6.0444  -10.6595 O   0  0  0  0  0  0  0  0  0  0  0  0
   59.3301   -6.0974   -7.6788 H   0  0  0  0  0  0  0  0  0  0  0  0
   61.6094   -6.8445   -8.7517 C   0  0  0  0  0  0  0  0  0  0  0  0
   62.7549   -6.1552   -8.4426 C   0  0  0  0  0  0  0  0  0  0  0  0
   63.7986   -6.8199   -7.7857 C   0  0  0  0  0  0  0  0  0  0  0  0
   63.7138   -8.1465   -7.4382 C   0  0  0  0  0  0  0  0  0  0  0  0
   64.6914   -8.8304   -6.8050 F   0  0  0  0  0  0  0  0  0  0  0  0
   62.5610   -8.8209   -7.7550 C   0  0  0  0  0  0  0  0  0  0  0  0
   61.5219   -8.1811   -8.4027 C   0  0  0  0  0  0  0  0  0  0  0  0
   54.2350   -4.8327   -6.9965 C   0  0  0  0  0  0  0  0  0  0  0  0
   53.4489   -6.1118   -6.8999 C   0  0  0  0  0  0  0  0  0  0  0  0
   51.5965   -4.8400   -6.1816 C   0  0  0  0  0  0  0  0  0  0  0  0
   52.3709   -6.0462   -5.9537 N   0  0  0  0  0  0  0  0  0  0  0  0
   52.9460   -5.8947   -4.6076 C   0  0  0  0  0  0  0  0  0  0  0  0
 24 25  1  0  0  0
 25 26  1  0  0  0
 25 23  1  0  0  0
 23 22  1  0  0  0
 22  1  1  0  0  0
  1  2  2  0  0  0
  2  3  1  0  0  0
  3  4  1  0  0  0
  4  5  2  0  0  0
  5  6  1  0  0  0
  6  7  2  0  0  0
  7 11  1  0  0  0
 11 12  1  0  0  0
 12 13  2  0  0  0
 12 15  1  0  0  0
 15 16  2  0  0  0
 16 17  1  0  0  0
 17 18  2  0  0  0
 18 19  1  0  0  0
 18 20  1  0  0  0
 20 21  2  0  0  0
  7  8  1  0  0  0
  8  9  2  0  0  0
  9  1  1  0  0  0
  9  4  1  0  0  0
 21 15  1  0  0  0
  3 10  1  0  0  0
 11 14  1  0  0  0
M  END
> <minimizedAffinity>
-7.49256

> <CNNscore>
0.3027943671

> <CNNaffinity>
5.4475083351

> <CNN_VS>
1.6494748592

> <CNNaffinity_variance>
0.1135593429

$$$$
[H]Oc1c([H])c([H])c2c(c1[H])C([H])([H])C([H])([H])[C@]1([H])[C@]2([H])C([H])([H])C([H])([H])[C@]2(C([H])([H])[H])[C@@](C#Cc3c([H])c([H])c([H])c([H])c3[H])(O[H])C([H])([H])C([H])([H])[C@]21[H]


 30 34  0  0  0  0  0  0  0  0999 V2000
   57.5195   -3.1488  -10.1612 C   0  0  0  0  0  0  0  0  0  0  0  0
   58.3828   -4.3558  -10.4315 C   0  0  0  0  0  0  0  0  0  0  0  0
   59.4272   -4.0538  -11.4425 C   0  0  0  0  0  0  0  0  0  0  0  0
   58.7622   -3.5019  -12.6600 C   0  0  0  0  0  0  0  0  0  0  0  0
   57.7175   -4.4041  -13.1987 C   0  0  0  0  0  0  0  0  0  0  0  0
   56.8098   -5.0116  -12.1631 C   0  0  0  0  0  0  0  0  0  0  0  0
   56.0957   -6.1777  -12.8615 C   0  0  0  0  0  0  0  0  0  0  0  0
   55.2471   -5.7139  -13.9999 C   0  0  0  0  0  0  0  0  0  0  0  0
   55.7072   -4.4304  -14.5888 C   0  0  0  0  0  0  0  0  0  0  0  0
   54.8762   -3.8766  -15.5641 C   0  0  0  0  0  0  0  0  0  0  0  0
   55.2098   -2.6856  -16.1759 C   0  0  0  0  0  0  0  0  0  0  0  0
   54.3968   -2.1066  -17.1565 O   0  0  0  0  0  0  0  0  0  0  0  0
   56.3768   -2.0400  -15.8165 C   0  0  0  0  0  0  0  0  0  0  0  0
   57.1954   -2.6114  -14.8374 C   0  0  0  0  0  0  0  0  0  0  0  0
   56.8687   -3.7942  -14.2266 C   0  0  0  0  0  0  0  0  0  0  0  0
   57.5627   -5.5141  -10.9884 C   0  0  0  0  0  0  0  0  0  0  0  0
   56.7356   -5.8939   -9.8178 C   0  0  0  0  0  0  0  0  0  0  0  0
   57.6360   -5.6518   -8.6235 C   0  0  0  0  0  0  0  0  0  0  0  0
   58.8559   -4.9052   -9.1408 C   0  0  0  0  0  0  0  0  0  0  0  0
   59.1907   -3.9452   -8.2146 O   0  0  0  0  0  0  0  0  0  0  0  0
   54.5607   -2.3570  -18.1281 H   0  0  0  0  0  0  0  0  0  0  0  0
   58.5519   -3.9022   -7.4781 H   0  0  0  0  0  0  0  0  0  0  0  0
   59.9609   -5.8326   -9.4089 C   0  0  0  0  0  0  0  0  0  0  0  0
   60.8492   -6.6012   -9.6179 C   0  0  0  0  0  0  0  0  0  0  0  0
   61.9026   -7.5439   -9.8751 C   0  0  0  0  0  0  0  0  0  0  0  0
   62.8177   -7.8884   -8.8859 C   0  0  0  0  0  0  0  0  0  0  0  0
   63.8264   -8.7937   -9.1382 C   0  0  0  0  0  0  0  0  0  0  0  0
   63.9671   -9.3895  -10.3732 C   0  0  0  0  0  0  0  0  0  0  0  0
   63.0584   -9.0475  -11.3555 C   0  0  0  0  0  0  0  0  0  0  0  0
   62.0518   -8.1396  -11.0922 C   0  0  0  0  0  0  0  0  0  0  0  0
  2  1  1  0  0  0
  2  3  1  0  0  0
  3  4  1  0  0  0
  4  5  1  0  0  0
  5  6  1  0  0  0
  6  7  1  0  0  0
  7  8  1  0  0  0
  8  9  1  0  0  0
  9 10  2  0  0  0
 10 11  1  0  0  0
 11 12  1  0  0  0
 11 13  2  0  0  0
 13 14  1  0  0  0
 14 15  2  0  0  0
  6 16  1  0  0  0
 16 17  1  0  0  0
 17 18  1  0  0  0
 18 19  1  0  0  0
 19 20  1  0  0  0
 19 23  1  0  0  0
 23 24  3  0  0  0
 24 25  1  0  0  0
 25 26  2  0  0  0
 26 27  1  0  0  0
 27 28  2  0  0  0
 28 29  1  0  0  0
 29 30  2  0  0  0
 16  2  1  0  0  0
 30 25  1  0  0  0
 19  2  1  0  0  0
 15  5  1  0  0  0
 15  9  1  0  0  0
 12 21  1  0  0  0
 20 22  1  0  0  0
M  END
> <minimizedAffinity>
14.95935

> <CNNscore>
0.6004716754

> <CNNaffinity>
5.3729248047

> <CNN_VS>
3.2262892723

> <CNNaffinity_variance>
0.5552610159

$$$$
[H]Oc1c([H])c([H])c2c(c1[H])C([H])([H])C([H])([H])[C@]1([H])[C@]2([H])C([H])([H])C([H])([H])[C@]2(C([H])([H])[H])[C@@](C#Cc3c([H])c([H])c([H])c([H])c3[H])(O[H])C([H])([H])C([H])([H])[C@]21[H]


 30 34  0  0  0  0  0  0  0  0999 V2000
   57.6876   -2.9657   -7.1100 C   0  0  0  0  0  0  0  0  0  0  0  0
   56.4884   -3.8081   -7.4670 C   0  0  0  0  0  0  0  0  0  0  0  0
   56.6465   -5.2017   -6.9799 C   0  0  0  0  0  0  0  0  0  0  0  0
   57.9391   -5.7406   -7.4977 C   0  0  0  0  0  0  0  0  0  0  0  0
   58.0423   -5.6571   -8.9735 C   0  0  0  0  0  0  0  0  0  0  0  0
   57.5795   -4.3541   -9.5681 C   0  0  0  0  0  0  0  0  0  0  0  0
   57.3951   -4.6185  -11.0692 C   0  0  0  0  0  0  0  0  0  0  0  0
   58.6788   -4.9955  -11.7334 C   0  0  0  0  0  0  0  0  0  0  0  0
   59.6613   -5.6094  -10.8040 C   0  0  0  0  0  0  0  0  0  0  0  0
   60.9285   -5.8560  -11.3350 C   0  0  0  0  0  0  0  0  0  0  0  0
   61.9165   -6.4240  -10.5571 C   0  0  0  0  0  0  0  0  0  0  0  0
   63.1956   -6.6828  -11.0617 O   0  0  0  0  0  0  0  0  0  0  0  0
   61.6443   -6.7492   -9.2425 C   0  0  0  0  0  0  0  0  0  0  0  0
   60.3686   -6.4940   -8.7298 C   0  0  0  0  0  0  0  0  0  0  0  0
   59.3836   -5.9301   -9.4982 C   0  0  0  0  0  0  0  0  0  0  0  0
   56.2987   -3.8960   -8.9772 C   0  0  0  0  0  0  0  0  0  0  0  0
   55.9019   -2.5082   -9.3168 C   0  0  0  0  0  0  0  0  0  0  0  0
   55.0870   -2.0453   -8.1263 C   0  0  0  0  0  0  0  0  0  0  0  0
   55.2606   -3.0982   -7.0425 C   0  0  0  0  0  0  0  0  0  0  0  0
   55.3798   -2.4498   -5.8356 O   0  0  0  0  0  0  0  0  0  0  0  0
   63.3700   -7.5871  -11.4924 H   0  0  0  0  0  0  0  0  0  0  0  0
   55.3972   -1.4793   -5.9365 H   0  0  0  0  0  0  0  0  0  0  0  0
   54.1453   -4.0516   -7.0572 C   0  0  0  0  0  0  0  0  0  0  0  0
   53.2325   -4.8198   -7.0516 C   0  0  0  0  0  0  0  0  0  0  0  0
   52.1188   -5.7276   -7.0357 C   0  0  0  0  0  0  0  0  0  0  0  0
   51.1845   -5.7388   -8.0659 C   0  0  0  0  0  0  0  0  0  0  0  0
   50.1179   -6.6121   -8.0455 C   0  0  0  0  0  0  0  0  0  0  0  0
   49.9364   -7.5032   -7.0096 C   0  0  0  0  0  0  0  0  0  0  0  0
   50.8642   -7.4921   -5.9865 C   0  0  0  0  0  0  0  0  0  0  0  0
   51.9289   -6.6132   -6.0168 C   0  0  0  0  0  0  0  0  0  0  0  0
  2  1  1  0  0  0
  2  3  1  0  0  0
  3  4  1  0  0  0
  4  5  1  0  0  0
  5  6  1  0  0  0
  6  7  1  0  0  0
  7  8  1  0  0  0
  8  9  1  0  0  0
  9 10  2  0  0  0
 10 11  1  0  0  0
 11 12  1  0  0  0
 11 13  2  0  0  0
 13 14  1  0  0  0
 14 15  2  0  0  0
  6 16  1  0  0  0
 16 17  1  0  0  0
 17 18  1  0  0  0
 18 19  1  0  0  0
 19 20  1  0  0  0
 19 23  1  0  0  0
 23 24  3  0  0  0
 24 25  1  0  0  0
 25 26  2  0  0  0
 26 27  1  0  0  0
 27 28  2  0  0  0
 28 29  1  0  0  0
 29 30  2  0  0  0
 16  2  1  0  0  0
 30 25  1  0  0  0
 19  2  1  0  0  0
 15  5  1  0  0  0
 15  9  1  0  0  0
 12 21  1  0  0  0
 20 22  1  0  0  0
M  END
> <minimizedAffinity>
11.28841

> <CNNscore>
0.5701994896

> <CNNaffinity>
6.2328014374

> <CNN_VS>
3.5539402962

> <CNNaffinity_variance>
1.1506618261

$$$$
[H]Oc1c([H])c([H])c2c(c1[H])C([H])([H])C([H])([H])[C@]1([H])[C@]2([H])C([H])([H])C([H])([H])[C@]2(C([H])([H])[H])[C@@](C#Cc3c([H])c([H])c([H])c([H])c3[H])(O[H])C([H])([H])C([H])([H])[C@]21[H]


 30 34  0  0  0  0  0  0  0  0999 V2000
   49.5101   -4.1488   -8.6070 C   0  0  0  0  0  0  0  0  0  0  0  0
   50.8434   -4.1890   -7.9027 C   0  0  0  0  0  0  0  0  0  0  0  0
   50.9728   -5.4089   -7.0665 C   0  0  0  0  0  0  0  0  0  0  0  0
   49.8003   -5.4777   -6.1446 C   0  0  0  0  0  0  0  0  0  0  0  0
   49.6506   -4.2563   -5.3190 C   0  0  0  0  0  0  0  0  0  0  0  0
   49.8354   -2.9616   -6.0641 C   0  0  0  0  0  0  0  0  0  0  0  0
   50.0355   -1.8829   -4.9900 C   0  0  0  0  0  0  0  0  0  0  0  0
   48.8367   -1.7389   -4.1105 C   0  0  0  0  0  0  0  0  0  0  0  0
   48.0144   -2.9734   -4.0340 C   0  0  0  0  0  0  0  0  0  0  0  0
   46.8091   -2.8588   -3.3392 C   0  0  0  0  0  0  0  0  0  0  0  0
   45.9691   -3.9457   -3.2083 C   0  0  0  0  0  0  0  0  0  0  0  0
   44.7551   -3.8610   -2.5177 O   0  0  0  0  0  0  0  0  0  0  0  0
   46.3284   -5.1547   -3.7714 C   0  0  0  0  0  0  0  0  0  0  0  0
   47.5399   -5.2484   -4.4634 C   0  0  0  0  0  0  0  0  0  0  0  0
   48.3780   -4.1720   -4.5963 C   0  0  0  0  0  0  0  0  0  0  0  0
   51.0138   -3.0000   -6.9637 C   0  0  0  0  0  0  0  0  0  0  0  0
   51.1227   -1.8701   -7.9177 C   0  0  0  0  0  0  0  0  0  0  0  0
   51.8565   -2.4503   -9.1096 C   0  0  0  0  0  0  0  0  0  0  0  0
   51.9167   -3.9548   -8.8951 C   0  0  0  0  0  0  0  0  0  0  0  0
   51.6987   -4.5658  -10.1077 O   0  0  0  0  0  0  0  0  0  0  0  0
   44.7524   -4.0617   -1.5211 H   0  0  0  0  0  0  0  0  0  0  0  0
   51.4888   -3.9250  -10.8131 H   0  0  0  0  0  0  0  0  0  0  0  0
   53.1970   -4.3458   -8.2942 C   0  0  0  0  0  0  0  0  0  0  0  0
   54.2284   -4.6768   -7.7943 C   0  0  0  0  0  0  0  0  0  0  0  0
   55.4633   -5.0988   -7.1930 C   0  0  0  0  0  0  0  0  0  0  0  0
   55.5112   -5.5245   -5.8698 C   0  0  0  0  0  0  0  0  0  0  0  0
   56.6990   -5.9284   -5.2980 C   0  0  0  0  0  0  0  0  0  0  0  0
   57.8788   -5.9262   -6.0108 C   0  0  0  0  0  0  0  0  0  0  0  0
   57.8313   -5.5035   -7.3248 C   0  0  0  0  0  0  0  0  0  0  0  0
   56.6363   -5.1010   -7.8877 C   0  0  0  0  0  0  0  0  0  0  0  0
  2  1  1  0  0  0
  2  3  1  0  0  0
  3  4  1  0  0  0
  4  5  1  0  0  0
  5  6  1  0  0  0
  6  7  1  0  0  0
  7  8  1  0  0  0
  8  9  1  0  0  0
  9 10  2  0  0  0
 10 11  1  0  0  0
 11 12  1  0  0  0
 11 13  2  0  0  0
 13 14  1  0  0  0
 14 15  2  0  0  0
  6 16  1  0  0  0
 16 17  1  0  0  0
 17 18  1  0  0  0
 18 19  1  0  0  0
 19 20  1  0  0  0
 19 23  1  0  0  0
 23 24  3  0  0  0
 24 25  1  0  0  0
 25 26  2  0  0  0
 26 27  1  0  0  0
 27 28  2  0  0  0
 28 29  1  0  0  0
 29 30  2  0  0  0
 16  2  1  0  0  0
 30 25  1  0  0  0
 19  2  1  0  0  0
 15  5  1  0  0  0
 15  9  1  0  0  0
 12 21  1  0  0  0
 20 22  1  0  0  0
M  END
> <minimizedAffinity>
11.01192

> <CNNscore>
0.5616403818

> <CNNaffinity>
7.2777509689

> <CNN_VS>
4.0874786377

> <CNNaffinity_variance>
1.8827731609

$$$$
[H]Oc1c([H])c([H])c2c(c1[H])C([H])([H])C([H])([H])[C@]1([H])[C@]2([H])C([H])([H])C([H])([H])[C@]2(C([H])([H])[H])[C@@](C#Cc3c([H])c([H])c([H])c([H])c3[H])(O[H])C([H])([H])C([H])([H])[C@]21[H]


 30 34  0  0  0  0  0  0  0  0999 V2000
   55.3440   -3.4887   -6.5576 C   0  0  0  0  0  0  0  0  0  0  0  0
   55.2612   -3.9334   -7.9965 C   0  0  0  0  0  0  0  0  0  0  0  0
   54.5426   -2.9344   -8.8271 C   0  0  0  0  0  0  0  0  0  0  0  0
   53.2143   -2.6653   -8.2006 C   0  0  0  0  0  0  0  0  0  0  0  0
   52.4150   -3.8976   -8.0051 C   0  0  0  0  0  0  0  0  0  0  0  0
   53.1830   -5.0705   -7.4573 C   0  0  0  0  0  0  0  0  0  0  0  0
   52.3026   -6.3035   -7.7066 C   0  0  0  0  0  0  0  0  0  0  0  0
   51.0041   -6.2223   -6.9727 C   0  0  0  0  0  0  0  0  0  0  0  0
   50.5776   -4.8282   -6.6889 C   0  0  0  0  0  0  0  0  0  0  0  0
   49.4438   -4.6909   -5.8862 C   0  0  0  0  0  0  0  0  0  0  0  0
   48.9620   -3.4393   -5.5613 C   0  0  0  0  0  0  0  0  0  0  0  0
   47.8280   -3.2706   -4.7590 O   0  0  0  0  0  0  0  0  0  0  0  0
   49.6106   -2.3163   -6.0368 C   0  0  0  0  0  0  0  0  0  0  0  0
   50.7446   -2.4756   -6.8393 C   0  0  0  0  0  0  0  0  0  0  0  0
   51.2274   -3.7163   -7.1650 C   0  0  0  0  0  0  0  0  0  0  0  0
   54.4924   -5.2429   -8.1319 C   0  0  0  0  0  0  0  0  0  0  0  0
   55.4167   -6.2080   -7.4893 C   0  0  0  0  0  0  0  0  0  0  0  0
   56.7999   -5.6980   -7.8392 C   0  0  0  0  0  0  0  0  0  0  0  0
   56.6139   -4.3207   -8.4569 C   0  0  0  0  0  0  0  0  0  0  0  0
   57.6177   -3.5059   -7.9881 O   0  0  0  0  0  0  0  0  0  0  0  0
   46.9194   -3.2223   -5.2126 H   0  0  0  0  0  0  0  0  0  0  0  0
   58.1776   -3.9519   -7.3248 H   0  0  0  0  0  0  0  0  0  0  0  0
   56.5991   -4.4030   -9.9219 C   0  0  0  0  0  0  0  0  0  0  0  0
   56.5809   -4.4512  -11.1138 C   0  0  0  0  0  0  0  0  0  0  0  0
   56.5684   -4.4867  -12.5502 C   0  0  0  0  0  0  0  0  0  0  0  0
   55.8599   -5.4647  -13.2400 C   0  0  0  0  0  0  0  0  0  0  0  0
   55.8514   -5.4938  -14.6184 C   0  0  0  0  0  0  0  0  0  0  0  0
   56.5406   -4.5606  -15.3627 C   0  0  0  0  0  0  0  0  0  0  0  0
   57.2442   -3.5893  -14.6778 C   0  0  0  0  0  0  0  0  0  0  0  0
   57.2461   -3.5693  -13.2970 C   0  0  0  0  0  0  0  0  0  0  0  0
  2  1  1  0  0  0
  2  3  1  0  0  0
  3  4  1  0  0  0
  4  5  1  0  0  0
  5  6  1  0  0  0
  6  7  1  0  0  0
  7  8  1  0  0  0
  8  9  1  0  0  0
  9 10  2  0  0  0
 10 11  1  0  0  0
 11 12  1  0  0  0
 11 13  2  0  0  0
 13 14  1  0  0  0
 14 15  2  0  0  0
  6 16  1  0  0  0
 16 17  1  0  0  0
 17 18  1  0  0  0
 18 19  1  0  0  0
 19 20  1  0  0  0
 19 23  1  0  0  0
 23 24  3  0  0  0
 24 25  1  0  0  0
 25 26  2  0  0  0
 26 27  1  0  0  0
 27 28  2  0  0  0
 28 29  1  0  0  0
 29 30  2  0  0  0
 16  2  1  0  0  0
 30 25  1  0  0  0
 19  2  1  0  0  0
 15  5  1  0  0  0
 15  9  1  0  0  0
 12 21  1  0  0  0
 20 22  1  0  0  0
M  END
> <minimizedAffinity>
-7.21878

> <CNNscore>
0.5256695747

> <CNNaffinity>
6.9981536865

> <CNN_VS>
3.6787164211

> <CNNaffinity_variance>
0.5160676241

$$$$
[H]Oc1c([H])c([H])c2c(c1[H])C([H])([H])C([H])([H])[C@]1([H])[C@]2([H])C([H])([H])C([H])([H])[C@]2(C([H])([H])[H])[C@@](C#Cc3c([H])c([H])c([H])c([H])c3[H])(O[H])C([H])([H])C([H])([H])[C@]21[H]


 30 34  0  0  0  0  0  0  0  0999 V2000
   52.6217   -7.3199   -8.2077 C   0  0  0  0  0  0  0  0  0  0  0  0
   52.0092   -6.1919   -7.4154 C   0  0  0  0  0  0  0  0  0  0  0  0
   51.4251   -5.1617   -8.3108 C   0  0  0  0  0  0  0  0  0  0  0  0
   52.4765   -4.7213   -9.2751 C   0  0  0  0  0  0  0  0  0  0  0  0
   53.7026   -4.2346   -8.6002 C   0  0  0  0  0  0  0  0  0  0  0  0
   54.1705   -5.0826   -7.4480 C   0  0  0  0  0  0  0  0  0  0  0  0
   55.1715   -4.2180   -6.6685 C   0  0  0  0  0  0  0  0  0  0  0  0
   56.3662   -3.8637   -7.4922 C   0  0  0  0  0  0  0  0  0  0  0  0
   56.0932   -3.8668   -8.9521 C   0  0  0  0  0  0  0  0  0  0  0  0
   57.2026   -3.6790   -9.7783 C   0  0  0  0  0  0  0  0  0  0  0  0
   57.0605   -3.6647  -11.1508 C   0  0  0  0  0  0  0  0  0  0  0  0
   58.1538   -3.4786  -12.0039 O   0  0  0  0  0  0  0  0  0  0  0  0
   55.8079   -3.8381  -11.7067 C   0  0  0  0  0  0  0  0  0  0  0  0
   54.7097   -4.0248  -10.8615 C   0  0  0  0  0  0  0  0  0  0  0  0
   54.8452   -4.0398   -9.4977 C   0  0  0  0  0  0  0  0  0  0  0  0
   53.0520   -5.4814   -6.5597 C   0  0  0  0  0  0  0  0  0  0  0  0
   53.3789   -6.5188   -5.5520 C   0  0  0  0  0  0  0  0  0  0  0  0
   52.0709   -7.2476   -5.3207 C   0  0  0  0  0  0  0  0  0  0  0  0
   51.1054   -6.7617   -6.3907 C   0  0  0  0  0  0  0  0  0  0  0  0
   50.3768   -7.8430   -6.8281 O   0  0  0  0  0  0  0  0  0  0  0  0
   58.3977   -2.5296  -12.2750 H   0  0  0  0  0  0  0  0  0  0  0  0
   50.6737   -8.6789   -6.4213 H   0  0  0  0  0  0  0  0  0  0  0  0
   50.2526   -5.6850   -5.8745 C   0  0  0  0  0  0  0  0  0  0  0  0
   49.5437   -4.8219   -5.4548 C   0  0  0  0  0  0  0  0  0  0  0  0
   48.6793   -3.7987   -4.9348 C   0  0  0  0  0  0  0  0  0  0  0  0
   48.9465   -2.4513   -5.1527 C   0  0  0  0  0  0  0  0  0  0  0  0
   48.1135   -1.4738   -4.6513 C   0  0  0  0  0  0  0  0  0  0  0  0
   46.9898   -1.7913   -3.9188 C   0  0  0  0  0  0  0  0  0  0  0  0
   46.7245   -3.1293   -3.7024 C   0  0  0  0  0  0  0  0  0  0  0  0
   47.5654   -4.1004   -4.2090 C   0  0  0  0  0  0  0  0  0  0  0  0
  2  1  1  0  0  0
  2  3  1  0  0  0
  3  4  1  0  0  0
  4  5  1  0  0  0
  5  6  1  0  0  0
  6  7  1  0  0  0
  7  8  1  0  0  0
  8  9  1  0  0  0
  9 10  2  0  0  0
 10 11  1  0  0  0
 11 12  1  0  0  0
 11 13  2  0  0  0
 13 14  1  0  0  0
 14 15  2  0  0  0
  6 16  1  0  0  0
 16 17  1  0  0  0
 17 18  1  0  0  0
 18 19  1  0  0  0
 19 20  1  0  0  0
 19 23  1  0  0  0
 23 24  3  0  0  0
 24 25  1  0  0  0
 25 26  2  0  0  0
 26 27  1  0  0  0
 27 28  2  0  0  0
 28 29  1  0  0  0
 29 30  2  0  0  0
 16  2  1  0  0  0
 30 25  1  0  0  0
 19  2  1  0  0  0
 15  5  1  0  0  0
 15  9  1  0  0  0
 12 21  1  0  0  0
 20 22  1  0  0  0
M  END
> <minimizedAffinity>
2.08005

> <CNNscore>
0.5134376884

> <CNNaffinity>
6.8550577164

> <CNN_VS>
3.5196449757

> <CNNaffinity_variance>
1.2251888514

$$$$
[H]Oc1c([H])c([H])c2c(c1[H])C([H])([H])C([H])([H])[C@]1([H])[C@]2([H])C([H])([H])C([H])([H])[C@]2(C([H])([H])[H])[C@@](C#Cc3c([H])c([H])c([H])c([H])c3[H])(O[H])C([H])([H])C([H])([H])[C@]21[H]


 30 34  0  0  0  0  0  0  0  0999 V2000
   54.7184   -7.1846   -6.6661 C   0  0  0  0  0  0  0  0  0  0  0  0
   53.6853   -6.1432   -6.3145 C   0  0  0  0  0  0  0  0  0  0  0  0
   52.6694   -6.0102   -7.3890 C   0  0  0  0  0  0  0  0  0  0  0  0
   53.3753   -5.7496   -8.6786 C   0  0  0  0  0  0  0  0  0  0  0  0
   54.2667   -4.5677   -8.6129 C   0  0  0  0  0  0  0  0  0  0  0  0
   55.1045   -4.4748   -7.3658 C   0  0  0  0  0  0  0  0  0  0  0  0
   55.6271   -3.0319   -7.3166 C   0  0  0  0  0  0  0  0  0  0  0  0
   56.5041   -2.7137   -8.4832 C   0  0  0  0  0  0  0  0  0  0  0  0
   56.2170   -3.5489   -9.6772 C   0  0  0  0  0  0  0  0  0  0  0  0
   57.0936   -3.3940  -10.7525 C   0  0  0  0  0  0  0  0  0  0  0  0
   56.9178   -4.1223  -11.9112 C   0  0  0  0  0  0  0  0  0  0  0  0
   57.7800   -3.9882  -13.0050 O   0  0  0  0  0  0  0  0  0  0  0  0
   55.8642   -5.0108  -12.0028 C   0  0  0  0  0  0  0  0  0  0  0  0
   54.9975   -5.1512  -10.9144 C   0  0  0  0  0  0  0  0  0  0  0  0
   55.1676   -4.4303   -9.7612 C   0  0  0  0  0  0  0  0  0  0  0  0
   54.3175   -4.7665   -6.1432 C   0  0  0  0  0  0  0  0  0  0  0  0
   55.1113   -4.9467   -4.9038 C   0  0  0  0  0  0  0  0  0  0  0  0
   54.2852   -5.8956   -4.0596 C   0  0  0  0  0  0  0  0  0  0  0  0
   53.1715   -6.4184   -4.9537 C   0  0  0  0  0  0  0  0  0  0  0  0
   53.0005   -7.7556   -4.6814 O   0  0  0  0  0  0  0  0  0  0  0  0
   57.5575   -3.2920  -13.7117 H   0  0  0  0  0  0  0  0  0  0  0  0
   53.6573   -8.0904   -4.0420 H   0  0  0  0  0  0  0  0  0  0  0  0
   51.9391   -5.6462   -4.7586 C   0  0  0  0  0  0  0  0  0  0  0  0
   50.9339   -5.0189   -4.6195 C   0  0  0  0  0  0  0  0  0  0  0  0
   49.7123   -4.2775   -4.4685 C   0  0  0  0  0  0  0  0  0  0  0  0
   49.4737   -3.1247   -5.2091 C   0  0  0  0  0  0  0  0  0  0  0  0
   48.2997   -2.4173   -5.0602 C   0  0  0  0  0  0  0  0  0  0  0  0
   47.3220   -2.8222   -4.1768 C   0  0  0  0  0  0  0  0  0  0  0  0
   47.5590   -3.9670   -3.4414 C   0  0  0  0  0  0  0  0  0  0  0  0
   48.7383   -4.6680   -3.5982 C   0  0  0  0  0  0  0  0  0  0  0  0
  2  1  1  0  0  0
  2  3  1  0  0  0
  3  4  1  0  0  0
  4  5  1  0  0  0
  5  6  1  0  0  0
  6  7  1  0  0  0
  7  8  1  0  0  0
  8  9  1  0  0  0
  9 10  2  0  0  0
 10 11  1  0  0  0
 11 12  1  0  0  0
 11 13  2  0  0  0
 13 14  1  0  0  0
 14 15  2  0  0  0
  6 16  1  0  0  0
 16 17  1  0  0  0
 17 18  1  0  0  0
 18 19  1  0  0  0
 19 20  1  0  0  0
 19 23  1  0  0  0
 23 24  3  0  0  0
 24 25  1  0  0  0
 25 26  2  0  0  0
 26 27  1  0  0  0
 27 28  2  0  0  0
 28 29  1  0  0  0
 29 30  2  0  0  0
 16  2  1  0  0  0
 30 25  1  0  0  0
 19  2  1  0  0  0
 15  5  1  0  0  0
 15  9  1  0  0  0
 12 21  1  0  0  0
 20 22  1  0  0  0
M  END
> <minimizedAffinity>
-0.92360

> <CNNscore>
0.5044750571

> <CNNaffinity>
6.8073678017

> <CNN_VS>
3.4341473579

> <CNNaffinity_variance>
0.9212161899

$$$$
[H]Oc1c([H])c([H])c2c(c1[H])C([H])([H])C([H])([H])[C@]1([H])[C@]2([H])C([H])([H])C([H])([H])[C@]2(C([H])([H])[H])[C@@](C#Cc3c([H])c([H])c([H])c([H])c3[H])(O[H])C([H])([H])C([H])([H])[C@]21[H]


 30 34  0  0  0  0  0  0  0  0999 V2000
   57.7468   -3.1700  -14.0475 C   0  0  0  0  0  0  0  0  0  0  0  0
   57.8393   -3.6291  -12.6136 C   0  0  0  0  0  0  0  0  0  0  0  0
   58.4098   -2.5683  -11.7455 C   0  0  0  0  0  0  0  0  0  0  0  0
   59.7147   -2.1327  -12.3257 C   0  0  0  0  0  0  0  0  0  0  0  0
   60.6598   -3.2582  -12.5149 C   0  0  0  0  0  0  0  0  0  0  0  0
   60.0525   -4.5028  -13.1046 C   0  0  0  0  0  0  0  0  0  0  0  0
   61.0650   -5.6279  -12.8468 C   0  0  0  0  0  0  0  0  0  0  0  0
   62.3658   -5.3802  -13.5382 C   0  0  0  0  0  0  0  0  0  0  0  0
   62.6324   -3.9404  -13.7868 C   0  0  0  0  0  0  0  0  0  0  0  0
   63.7651   -3.6551  -14.5512 C   0  0  0  0  0  0  0  0  0  0  0  0
   64.1047   -2.3495  -14.8414 C   0  0  0  0  0  0  0  0  0  0  0  0
   65.2337   -2.0330  -15.6049 O   0  0  0  0  0  0  0  0  0  0  0  0
   63.3139   -1.3201  -14.3693 C   0  0  0  0  0  0  0  0  0  0  0  0
   62.1836   -1.6272  -13.6055 C   0  0  0  0  0  0  0  0  0  0  0  0
   61.8418   -2.9222  -13.3143 C   0  0  0  0  0  0  0  0  0  0  0  0
   58.7535   -4.8412  -12.4744 C   0  0  0  0  0  0  0  0  0  0  0  0
   57.9693   -5.8961  -13.1605 C   0  0  0  0  0  0  0  0  0  0  0  0
   56.5258   -5.5595  -12.8466 C   0  0  0  0  0  0  0  0  0  0  0  0
   56.5290   -4.1819  -12.2022 C   0  0  0  0  0  0  0  0  0  0  0  0
   55.4500   -3.4823  -12.6897 O   0  0  0  0  0  0  0  0  0  0  0  0
   66.1165   -1.8866  -15.1222 H   0  0  0  0  0  0  0  0  0  0  0  0
   54.9667   -3.9785  -13.3771 H   0  0  0  0  0  0  0  0  0  0  0  0
   56.5103   -4.2898  -10.7389 C   0  0  0  0  0  0  0  0  0  0  0  0
   56.4918   -4.3581   -9.5479 C   0  0  0  0  0  0  0  0  0  0  0  0
   56.4507   -4.4247   -8.1132 C   0  0  0  0  0  0  0  0  0  0  0  0
   57.1825   -5.3799   -7.4157 C   0  0  0  0  0  0  0  0  0  0  0  0
   57.1393   -5.4391   -6.0389 C   0  0  0  0  0  0  0  0  0  0  0  0
   56.3740   -4.5594   -5.3038 C   0  0  0  0  0  0  0  0  0  0  0  0
   55.6473   -3.6108   -5.9965 C   0  0  0  0  0  0  0  0  0  0  0  0
   55.6977   -3.5603   -7.3755 C   0  0  0  0  0  0  0  0  0  0  0  0
  2  1  1  0  0  0
  2  3  1  0  0  0
  3  4  1  0  0  0
  4  5  1  0  0  0
  5  6  1  0  0  0
  6  7  1  0  0  0
  7  8  1  0  0  0
  8  9  1  0  0  0
  9 10  2  0  0  0
 10 11  1  0  0  0
 11 12  1  0  0  0
 11 13  2  0  0  0
 13 14  1  0  0  0
 14 15  2  0  0  0
  6 16  1  0  0  0
 16 17  1  0  0  0
 17 18  1  0  0  0
 18 19  1  0  0  0
 19 20  1  0  0  0
 19 23  1  0  0  0
 23 24  3  0  0  0
 24 25  1  0  0  0
 25 26  2  0  0  0
 26 27  1  0  0  0
 27 28  2  0  0  0
 28 29  1  0  0  0
 29 30  2  0  0  0
 16  2  1  0  0  0
 30 25  1  0  0  0
 19  2  1  0  0  0
 15  5  1  0  0  0
 15  9  1  0  0  0
 12 21  1  0  0  0
 20 22  1  0  0  0
M  END
> <minimizedAffinity>
13.14771

> <CNNscore>
0.5009309053

> <CNNaffinity>
5.3839502335

> <CNN_VS>
2.6969871521

> <CNNaffinity_variance>
0.8657647967

$$$$
[H]Oc1c([H])c([H])c2c(c1[H])C([H])([H])C([H])([H])[C@]1([H])[C@]2([H])C([H])([H])C([H])([H])[C@]2(C([H])([H])[H])[C@@](C#Cc3c([H])c([H])c([H])c([H])c3[H])(O[H])C([H])([H])C([H])([H])[C@]21[H]


 30 34  0  0  0  0  0  0  0  0999 V2000
   58.1387   -5.6197  -15.5002 C   0  0  0  0  0  0  0  0  0  0  0  0
   57.5745   -4.2380  -15.7186 C   0  0  0  0  0  0  0  0  0  0  0  0
   57.8181   -3.7715  -17.1069 C   0  0  0  0  0  0  0  0  0  0  0  0
   59.2795   -3.8795  -17.3931 C   0  0  0  0  0  0  0  0  0  0  0  0
   60.1097   -3.1442  -16.4104 C   0  0  0  0  0  0  0  0  0  0  0  0
   59.6987   -3.3240  -14.9736 C   0  0  0  0  0  0  0  0  0  0  0  0
   60.4009   -2.2045  -14.1918 C   0  0  0  0  0  0  0  0  0  0  0  0
   61.8885   -2.3207  -14.2614 C   0  0  0  0  0  0  0  0  0  0  0  0
   62.3644   -3.0365  -15.4726 C   0  0  0  0  0  0  0  0  0  0  0  0
   63.7346   -3.2975  -15.5254 C   0  0  0  0  0  0  0  0  0  0  0  0
   64.2817   -3.9573  -16.6068 C   0  0  0  0  0  0  0  0  0  0  0  0
   65.6513   -4.2327  -16.6874 O   0  0  0  0  0  0  0  0  0  0  0  0
   63.4624   -4.3608  -17.6429 C   0  0  0  0  0  0  0  0  0  0  0  0
   62.0925   -4.0897  -17.5707 C   0  0  0  0  0  0  0  0  0  0  0  0
   61.5439   -3.4347  -16.4990 C   0  0  0  0  0  0  0  0  0  0  0  0
   58.2303   -3.2161  -14.7967 C   0  0  0  0  0  0  0  0  0  0  0  0
   57.7176   -3.6293  -13.4682 C   0  0  0  0  0  0  0  0  0  0  0  0
   56.3137   -4.1286  -13.7426 C   0  0  0  0  0  0  0  0  0  0  0  0
   56.1690   -4.2155  -15.2542 C   0  0  0  0  0  0  0  0  0  0  0  0
   55.4654   -5.3599  -15.5484 O   0  0  0  0  0  0  0  0  0  0  0  0
   66.2565   -3.5437  -17.1261 H   0  0  0  0  0  0  0  0  0  0  0  0
   55.2751   -5.8926  -14.7533 H   0  0  0  0  0  0  0  0  0  0  0  0
   55.5239   -3.0101  -15.7871 C   0  0  0  0  0  0  0  0  0  0  0  0
   54.9959   -2.0240  -16.2020 C   0  0  0  0  0  0  0  0  0  0  0  0
   54.3707   -0.8234  -16.6840 C   0  0  0  0  0  0  0  0  0  0  0  0
   52.9867   -0.6865  -16.6938 C   0  0  0  0  0  0  0  0  0  0  0  0
   52.3922    0.4679  -17.1574 C   0  0  0  0  0  0  0  0  0  0  0  0
   53.1415    1.5255  -17.6267 C   0  0  0  0  0  0  0  0  0  0  0  0
   54.5159    1.3895  -17.6169 C   0  0  0  0  0  0  0  0  0  0  0  0
   55.1011    0.2290  -17.1505 C   0  0  0  0  0  0  0  0  0  0  0  0
  2  1  1  0  0  0
  2  3  1  0  0  0
  3  4  1  0  0  0
  4  5  1  0  0  0
  5  6  1  0  0  0
  6  7  1  0  0  0
  7  8  1  0  0  0
  8  9  1  0  0  0
  9 10  2  0  0  0
 10 11  1  0  0  0
 11 12  1  0  0  0
 11 13  2  0  0  0
 13 14  1  0  0  0
 14 15  2  0  0  0
  6 16  1  0  0  0
 16 17  1  0  0  0
 17 18  1  0  0  0
 18 19  1  0  0  0
 19 20  1  0  0  0
 19 23  1  0  0  0
 23 24  3  0  0  0
 24 25  1  0  0  0
 25 26  2  0  0  0
 26 27  1  0  0  0
 27 28  2  0  0  0
 28 29  1  0  0  0
 29 30  2  0  0  0
 16  2  1  0  0  0
 30 25  1  0  0  0
 19  2  1  0  0  0
 15  5  1  0  0  0
 15  9  1  0  0  0
 12 21  1  0  0  0
 20 22  1  0  0  0
M  END
> <minimizedAffinity>
7.71245

> <CNNscore>
0.4974869192

> <CNNaffinity>
5.2042317390

> <CNN_VS>
2.5890371799

> <CNNaffinity_variance>
0.7329274416

$$$$
[H]Oc1c([H])c([H])c2c(c1[H])C([H])([H])C([H])([H])[C@]1([H])[C@]2([H])C([H])([H])C([H])([H])[C@]2(C([H])([H])[H])[C@@](C#Cc3c([H])c([H])c([H])c([H])c3[H])(O[H])C([H])([H])C([H])([H])[C@]21[H]


 30 34  0  0  0  0  0  0  0  0999 V2000
   58.3096   -6.3444  -10.9207 C   0  0  0  0  0  0  0  0  0  0  0  0
   57.2871   -5.3136  -10.5119 C   0  0  0  0  0  0  0  0  0  0  0  0
   56.1688   -5.2502  -11.4865 C   0  0  0  0  0  0  0  0  0  0  0  0
   56.7394   -5.0281  -12.8482 C   0  0  0  0  0  0  0  0  0  0  0  0
   57.6002   -3.8240  -12.9172 C   0  0  0  0  0  0  0  0  0  0  0  0
   58.5517   -3.6585  -11.7627 C   0  0  0  0  0  0  0  0  0  0  0  0
   59.0367   -2.2030  -11.8225 C   0  0  0  0  0  0  0  0  0  0  0  0
   59.7879   -1.9141  -13.0809 C   0  0  0  0  0  0  0  0  0  0  0  0
   59.4098   -2.8059  -14.2069 C   0  0  0  0  0  0  0  0  0  0  0  0
   60.1739   -2.6762  -15.3679 C   0  0  0  0  0  0  0  0  0  0  0  0
   59.9070   -3.4571  -16.4739 C   0  0  0  0  0  0  0  0  0  0  0  0
   60.6555   -3.3494  -17.6512 O   0  0  0  0  0  0  0  0  0  0  0  0
   58.8743   -4.3731  -16.4265 C   0  0  0  0  0  0  0  0  0  0  0  0
   58.1211   -4.4875  -15.2539 C   0  0  0  0  0  0  0  0  0  0  0  0
   58.3818   -3.7143  -14.1526 C   0  0  0  0  0  0  0  0  0  0  0  0
   57.8949   -3.9164  -10.4583 C   0  0  0  0  0  0  0  0  0  0  0  0
   58.8093   -4.0250   -9.2962 C   0  0  0  0  0  0  0  0  0  0  0  0
   58.0949   -4.9563   -8.3380 C   0  0  0  0  0  0  0  0  0  0  0  0
   56.9149   -5.5427   -9.0975 C   0  0  0  0  0  0  0  0  0  0  0  0
   56.8078   -6.8707   -8.7565 O   0  0  0  0  0  0  0  0  0  0  0  0
   60.3468   -2.6893  -18.3600 H   0  0  0  0  0  0  0  0  0  0  0  0
   57.5322   -7.1625   -8.1714 H   0  0  0  0  0  0  0  0  0  0  0  0
   55.6864   -4.7920   -8.8140 C   0  0  0  0  0  0  0  0  0  0  0  0
   54.6792   -4.1894   -8.5997 C   0  0  0  0  0  0  0  0  0  0  0  0
   53.4533   -3.4834   -8.3481 C   0  0  0  0  0  0  0  0  0  0  0  0
   53.1757   -2.2754   -8.9791 C   0  0  0  0  0  0  0  0  0  0  0  0
   51.9977   -1.6024   -8.7339 C   0  0  0  0  0  0  0  0  0  0  0  0
   51.0543   -2.0970   -7.8590 C   0  0  0  0  0  0  0  0  0  0  0  0
   51.3299   -3.2965   -7.2324 C   0  0  0  0  0  0  0  0  0  0  0  0
   52.5129   -3.9625   -7.4852 C   0  0  0  0  0  0  0  0  0  0  0  0
  2  1  1  0  0  0
  2  3  1  0  0  0
  3  4  1  0  0  0
  4  5  1  0  0  0
  5  6  1  0  0  0
  6  7  1  0  0  0
  7  8  1  0  0  0
  8  9  1  0  0  0
  9 10  2  0  0  0
 10 11  1  0  0  0
 11 12  1  0  0  0
 11 13  2  0  0  0
 13 14  1  0  0  0
 14 15  2  0  0  0
  6 16  1  0  0  0
 16 17  1  0  0  0
 17 18  1  0  0  0
 18 19  1  0  0  0
 19 20  1  0  0  0
 19 23  1  0  0  0
 23 24  3  0  0  0
 24 25  1  0  0  0
 25 26  2  0  0  0
 26 27  1  0  0  0
 27 28  2  0  0  0
 28 29  1  0  0  0
 29 30  2  0  0  0
 16  2  1  0  0  0
 30 25  1  0  0  0
 19  2  1  0  0  0
 15  5  1  0  0  0
 15  9  1  0  0  0
 12 21  1  0  0  0
 20 22  1  0  0  0
M  END
> <minimizedAffinity>
12.01308

> <CNNscore>
0.4949568212

> <CNNaffinity>
5.9007935524

> <CNN_VS>
2.9206380844

> <CNNaffinity_variance>
1.1955577135

$$$$
[H]OC(=O)c1c([H])c([H])c(-c2c([H])c(F)c(C(F)(F)F)c([H])c2N([H])[H])c([H])c1[H]


 24 25  0  0  0  0  0  0  0  0999 V2000
   54.3136   -1.9004   -8.9947 N   0  0  0  0  0  0  0  0  0  0  0  0
   53.4882   -2.8798   -8.3824 C   0  0  0  0  0  0  0  0  0  0  0  0
   52.1709   -2.5255   -8.0546 C   0  0  0  0  0  0  0  0  0  0  0  0
   51.3773   -3.4763   -7.4565 C   0  0  0  0  0  0  0  0  0  0  0  0
   51.8619   -4.7403   -7.1871 C   0  0  0  0  0  0  0  0  0  0  0  0
   51.0206   -5.6222   -6.5963 F   0  0  0  0  0  0  0  0  0  0  0  0
   53.1580   -5.0447   -7.5249 C   0  0  0  0  0  0  0  0  0  0  0  0
   53.9856   -4.1230   -8.1247 C   0  0  0  0  0  0  0  0  0  0  0  0
   54.1732   -1.6259  -10.0000 H   0  0  0  0  0  0  0  0  0  0  0  0
   55.0928   -1.4102   -8.4803 H   0  0  0  0  0  0  0  0  0  0  0  0
   55.3441   -4.5119   -8.4612 C   0  0  0  0  0  0  0  0  0  0  0  0
   55.8293   -4.4858   -9.7498 C   0  0  0  0  0  0  0  0  0  0  0  0
   57.1091   -4.8565   -9.9999 C   0  0  0  0  0  0  0  0  0  0  0  0
   57.9644   -5.2665   -9.0047 C   0  0  0  0  0  0  0  0  0  0  0  0
   57.5131   -5.3073   -7.6876 C   0  0  0  0  0  0  0  0  0  0  0  0
   56.2196   -4.9299   -7.4544 C   0  0  0  0  0  0  0  0  0  0  0  0
   59.3252   -5.6495   -9.3495 C   0  0  0  0  0  0  0  0  0  0  0  0
   59.7510   -5.6710  -10.6669 O   0  0  0  0  0  0  0  0  0  0  0  0
   60.1115   -5.9623   -8.4251 O   0  0  0  0  0  0  0  0  0  0  0  0
   59.8111   -6.6047  -11.0987 H   0  0  0  0  0  0  0  0  0  0  0  0
   49.9779   -3.1425   -7.0932 C   0  0  0  0  0  0  0  0  0  0  0  0
   49.7309   -1.7991   -7.2914 F   0  0  0  0  0  0  0  0  0  0  0  0
   49.1252   -3.9546   -7.8056 F   0  0  0  0  0  0  0  0  0  0  0  0
   49.8490   -3.3963   -5.7373 F   0  0  0  0  0  0  0  0  0  0  0  0
  1  2  1  0  0  0
  2  3  2  0  0  0
  3  4  1  0  0  0
  4  5  2  0  0  0
  5  6  1  0  0  0
  5  7  1  0  0  0
  7  8  2  0  0  0
  8 11  1  0  0  0
 11 12  2  0  0  0
 12 13  1  0  0  0
 13 14  2  0  0  0
 14 15  1  0  0  0
 15 16  2  0  0  0
 14 17  1  0  0  0
 17 18  1  0  0  0
 17 19  2  0  0  0
  4 21  1  0  0  0
 21 22  1  0  0  0
 21 23  1  0  0  0
 21 24  1  0  0  0
  8  2  1  0  0  0
 16 11  1  0  0  0
  1  9  1  0  0  0
  1 10  1  0  0  0
 18 20  1  0  0  0
M  END
> <minimizedAffinity>
-9.98529

> <CNNscore>
0.6499500871

> <CNNaffinity>
5.7396445274

> <CNN_VS>
3.7304825783

> <CNNaffinity_variance>
0.1721547842

$$$$
[H]OC(=O)c1c([H])c([H])c(-c2c([H])c(F)c(C(F)(F)F)c([H])c2N([H])[H])c([H])c1[H]


 24 25  0  0  0  0  0  0  0  0999 V2000
   54.3468   -1.9001   -8.9825 N   0  0  0  0  0  0  0  0  0  0  0  0
   53.4979   -2.8490   -8.3544 C   0  0  0  0  0  0  0  0  0  0  0  0
   52.1802   -2.4675   -8.0605 C   0  0  0  0  0  0  0  0  0  0  0  0
   51.3638   -3.3886   -7.4470 C   0  0  0  0  0  0  0  0  0  0  0  0
   51.8266   -4.6499   -7.1301 C   0  0  0  0  0  0  0  0  0  0  0  0
   50.9635   -5.5018   -6.5269 F   0  0  0  0  0  0  0  0  0  0  0  0
   53.1239   -4.9816   -7.4360 C   0  0  0  0  0  0  0  0  0  0  0  0
   53.9739   -4.0900   -8.0497 C   0  0  0  0  0  0  0  0  0  0  0  0
   54.2270   -1.6553   -9.9981 H   0  0  0  0  0  0  0  0  0  0  0  0
   55.1237   -1.4043   -8.4701 H   0  0  0  0  0  0  0  0  0  0  0  0
   55.3325   -4.5069   -8.3505 C   0  0  0  0  0  0  0  0  0  0  0  0
   56.2051   -4.9569   -7.3848 C   0  0  0  0  0  0  0  0  0  0  0  0
   57.4601   -5.3367   -7.7291 C   0  0  0  0  0  0  0  0  0  0  0  0
   57.9125   -5.2925   -9.0266 C   0  0  0  0  0  0  0  0  0  0  0  0
   57.0615   -4.8435  -10.0336 C   0  0  0  0  0  0  0  0  0  0  0  0
   55.7995   -4.4647   -9.6678 C   0  0  0  0  0  0  0  0  0  0  0  0
   59.2731   -5.7166   -9.3203 C   0  0  0  0  0  0  0  0  0  0  0  0
   60.0988   -6.2132   -8.3258 O   0  0  0  0  0  0  0  0  0  0  0  0
   59.6878   -5.6237  -10.4993 O   0  0  0  0  0  0  0  0  0  0  0  0
   60.8116   -5.5581   -7.9726 H   0  0  0  0  0  0  0  0  0  0  0  0
   49.9632   -3.0254   -7.1184 C   0  0  0  0  0  0  0  0  0  0  0  0
   49.0791   -3.7323   -7.9081 F   0  0  0  0  0  0  0  0  0  0  0  0
   49.7542   -3.2222   -5.7724 F   0  0  0  0  0  0  0  0  0  0  0  0
   49.8189   -1.6825   -7.4273 F   0  0  0  0  0  0  0  0  0  0  0  0
  1  2  1  0  0  0
  2  3  2  0  0  0
  3  4  1  0  0  0
  4  5  2  0  0  0
  5  6  1  0  0  0
  5  7  1  0  0  0
  7  8  2  0  0  0
  8 11  1  0  0  0
 11 12  2  0  0  0
 12 13  1  0  0  0
 13 14  2  0  0  0
 14 15  1  0  0  0
 15 16  2  0  0  0
 14 17  1  0  0  0
 17 18  1  0  0  0
 17 19  2  0  0  0
  4 21  1  0  0  0
 21 22  1  0  0  0
 21 23  1  0  0  0
 21 24  1  0  0  0
  8  2  1  0  0  0
 16 11  1  0  0  0
  1  9  1  0  0  0
  1 10  1  0  0  0
 18 20  1  0  0  0
M  END
> <minimizedAffinity>
-10.21027

> <CNNscore>
0.6110662222

> <CNNaffinity>
5.7508306503

> <CNN_VS>
3.5141384602

> <CNNaffinity_variance>
0.1561347991

$$$$
[H]OC(=O)c1c([H])c([H])c(-c2c([H])c(F)c(C(F)(F)F)c([H])c2N([H])[H])c([H])c1[H]


 24 25  0  0  0  0  0  0  0  0999 V2000
   57.5695   -2.2968  -10.9815 N   0  0  0  0  0  0  0  0  0  0  0  0
   56.4450   -3.1368  -10.7681 C   0  0  0  0  0  0  0  0  0  0  0  0
   55.8597   -3.1498   -9.4932 C   0  0  0  0  0  0  0  0  0  0  0  0
   54.7742   -3.9694   -9.2903 C   0  0  0  0  0  0  0  0  0  0  0  0
   54.2757   -4.7552  -10.3099 C   0  0  0  0  0  0  0  0  0  0  0  0
   53.2043   -5.5363  -10.0336 F   0  0  0  0  0  0  0  0  0  0  0  0
   54.8794   -4.7115  -11.5429 C   0  0  0  0  0  0  0  0  0  0  0  0
   55.9675   -3.9053  -11.7883 C   0  0  0  0  0  0  0  0  0  0  0  0
   57.4593   -1.2539  -11.0585 H   0  0  0  0  0  0  0  0  0  0  0  0
   58.5511   -2.6715  -11.0712 H   0  0  0  0  0  0  0  0  0  0  0  0
   56.5550   -3.9023  -13.1168 C   0  0  0  0  0  0  0  0  0  0  0  0
   57.9138   -3.8356  -13.3306 C   0  0  0  0  0  0  0  0  0  0  0  0
   58.4021   -3.8413  -14.5953 C   0  0  0  0  0  0  0  0  0  0  0  0
   57.5856   -3.9120  -15.6991 C   0  0  0  0  0  0  0  0  0  0  0  0
   56.2052   -3.9806  -15.5266 C   0  0  0  0  0  0  0  0  0  0  0  0
   55.7309   -3.9739  -14.2441 C   0  0  0  0  0  0  0  0  0  0  0  0
   58.1823   -3.9135  -17.0263 C   0  0  0  0  0  0  0  0  0  0  0  0
   58.5701   -2.7335  -17.6384 O   0  0  0  0  0  0  0  0  0  0  0  0
   58.3403   -5.0110  -17.6103 O   0  0  0  0  0  0  0  0  0  0  0  0
   57.9333   -2.3822  -18.3684 H   0  0  0  0  0  0  0  0  0  0  0  0
   54.1257   -4.0133   -7.9565 C   0  0  0  0  0  0  0  0  0  0  0  0
   53.2619   -2.9483   -7.8001 F   0  0  0  0  0  0  0  0  0  0  0  0
   53.5065   -5.2325   -7.8002 F   0  0  0  0  0  0  0  0  0  0  0  0
   55.1366   -3.8736   -7.0193 F   0  0  0  0  0  0  0  0  0  0  0  0
  1  2  1  0  0  0
  2  3  2  0  0  0
  3  4  1  0  0  0
  4  5  2  0  0  0
  5  6  1  0  0  0
  5  7  1  0  0  0
  7  8  2  0  0  0
  8 11  1  0  0  0
 11 12  2  0  0  0
 12 13  1  0  0  0
 13 14  2  0  0  0
 14 15  1  0  0  0
 15 16  2  0  0  0
 14 17  1  0  0  0
 17 18  1  0  0  0
 17 19  2  0  0  0
  4 21  1  0  0  0
 21 22  1  0  0  0
 21 23  1  0  0  0
 21 24  1  0  0  0
  8  2  1  0  0  0
 16 11  1  0  0  0
  1  9  1  0  0  0
  1 10  1  0  0  0
 18 20  1  0  0  0
M  END
> <minimizedAffinity>
1.19343

> <CNNscore>
0.5660842657

> <CNNaffinity>
4.7110509872

> <CNN_VS>
2.6668517590

> <CNNaffinity_variance>
0.3765892684

$$$$
[H]OC(=O)c1c([H])c([H])c(-c2c([H])c(F)c(C(F)(F)F)c([H])c2N([H])[H])c([H])c1[H]


 24 25  0  0  0  0  0  0  0  0999 V2000
   51.7743   -2.8183   -9.4976 N   0  0  0  0  0  0  0  0  0  0  0  0
   52.9393   -3.4989   -9.0558 C   0  0  0  0  0  0  0  0  0  0  0  0
   54.0326   -3.5786   -9.9312 C   0  0  0  0  0  0  0  0  0  0  0  0
   55.1565   -4.2439   -9.5003 C   0  0  0  0  0  0  0  0  0  0  0  0
   55.2073   -4.8156   -8.2450 C   0  0  0  0  0  0  0  0  0  0  0  0
   56.3484   -5.4541   -7.8920 F   0  0  0  0  0  0  0  0  0  0  0  0
   54.1139   -4.7137   -7.4199 C   0  0  0  0  0  0  0  0  0  0  0  0
   52.9698   -4.0568   -7.8119 C   0  0  0  0  0  0  0  0  0  0  0  0
   51.7533   -1.7692   -9.5654 H   0  0  0  0  0  0  0  0  0  0  0  0
   50.8906   -3.3229   -9.7741 H   0  0  0  0  0  0  0  0  0  0  0  0
   51.8512   -3.9807   -6.8882 C   0  0  0  0  0  0  0  0  0  0  0  0
   50.8925   -2.9946   -6.9583 C   0  0  0  0  0  0  0  0  0  0  0  0
   49.8690   -2.9799   -6.0695 C   0  0  0  0  0  0  0  0  0  0  0  0
   49.7406   -3.9247   -5.0791 C   0  0  0  0  0  0  0  0  0  0  0  0
   50.6891   -4.9392   -4.9734 C   0  0  0  0  0  0  0  0  0  0  0  0
   51.7142   -4.9381   -5.8784 C   0  0  0  0  0  0  0  0  0  0  0  0
   48.6145   -3.8442   -4.1610 C   0  0  0  0  0  0  0  0  0  0  0  0
   48.4118   -4.8103   -3.1901 O   0  0  0  0  0  0  0  0  0  0  0  0
   47.8248   -2.8768   -4.2657 O   0  0  0  0  0  0  0  0  0  0  0  0
   47.6725   -5.4981   -3.3958 H   0  0  0  0  0  0  0  0  0  0  0  0
   56.3351   -4.3515  -10.3954 C   0  0  0  0  0  0  0  0  0  0  0  0
   57.0005   -3.1446  -10.4711 F   0  0  0  0  0  0  0  0  0  0  0  0
   57.1381   -5.3791   -9.9557 F   0  0  0  0  0  0  0  0  0  0  0  0
   55.8477   -4.6409  -11.6596 F   0  0  0  0  0  0  0  0  0  0  0  0
  1  2  1  0  0  0
  2  3  2  0  0  0
  3  4  1  0  0  0
  4  5  2  0  0  0
  5  6  1  0  0  0
  5  7  1  0  0  0
  7  8  2  0  0  0
  8 11  1  0  0  0
 11 12  2  0  0  0
 12 13  1  0  0  0
 13 14  2  0  0  0
 14 15  1  0  0  0
 15 16  2  0  0  0
 14 17  1  0  0  0
 17 18  1  0  0  0
 17 19  2  0  0  0
  4 21  1  0  0  0
 21 22  1  0  0  0
 21 23  1  0  0  0
 21 24  1  0  0  0
  8  2  1  0  0  0
 16 11  1  0  0  0
  1  9  1  0  0  0
  1 10  1  0  0  0
 18 20  1  0  0  0
M  END
> <minimizedAffinity>
-10.22156

> <CNNscore>
0.5588768125

> <CNNaffinity>
5.8894515038

> <CNN_VS>
3.2914779186

> <CNNaffinity_variance>
0.2208439857

$$$$
[H]OC(=O)c1c([H])c([H])c(-c2c([H])c(F)c(C(F)(F)F)c([H])c2N([H])[H])c([H])c1[H]


 24 25  0  0  0  0  0  0  0  0999 V2000
   51.7071   -2.8688   -9.4099 N   0  0  0  0  0  0  0  0  0  0  0  0
   52.8698   -3.5485   -8.9609 C   0  0  0  0  0  0  0  0  0  0  0  0
   53.9682   -3.6282   -9.8300 C   0  0  0  0  0  0  0  0  0  0  0  0
   55.0900   -4.2925   -9.3923 C   0  0  0  0  0  0  0  0  0  0  0  0
   55.1339   -4.8633   -8.1363 C   0  0  0  0  0  0  0  0  0  0  0  0
   56.2734   -5.5009   -7.7763 F   0  0  0  0  0  0  0  0  0  0  0  0
   54.0358   -4.7614   -7.3175 C   0  0  0  0  0  0  0  0  0  0  0  0
   52.8935   -4.1054   -7.7165 C   0  0  0  0  0  0  0  0  0  0  0  0
   51.6858   -1.8198   -9.4786 H   0  0  0  0  0  0  0  0  0  0  0  0
   50.8252   -3.3741   -9.6910 H   0  0  0  0  0  0  0  0  0  0  0  0
   51.7697   -4.0293   -6.7992 C   0  0  0  0  0  0  0  0  0  0  0  0
   51.5751   -4.9370   -5.7820 C   0  0  0  0  0  0  0  0  0  0  0  0
   50.5086   -4.8099   -4.9549 C   0  0  0  0  0  0  0  0  0  0  0  0
   49.5916   -3.7942   -5.0872 C   0  0  0  0  0  0  0  0  0  0  0  0
   49.7517   -2.8551   -6.1033 C   0  0  0  0  0  0  0  0  0  0  0  0
   50.8331   -2.9992   -6.9277 C   0  0  0  0  0  0  0  0  0  0  0  0
   48.4714   -3.7222   -4.1612 C   0  0  0  0  0  0  0  0  0  0  0  0
   47.5303   -2.7107   -4.2530 O   0  0  0  0  0  0  0  0  0  0  0  0
   48.3729   -4.5994   -3.2715 O   0  0  0  0  0  0  0  0  0  0  0  0
   47.6252   -1.9522   -3.5620 H   0  0  0  0  0  0  0  0  0  0  0  0
   56.2737   -4.4001  -10.2805 C   0  0  0  0  0  0  0  0  0  0  0  0
   57.1427   -5.3676   -9.8182 F   0  0  0  0  0  0  0  0  0  0  0  0
   55.8469   -4.6345  -11.5678 F   0  0  0  0  0  0  0  0  0  0  0  0
   56.9304   -3.1819  -10.2152 F   0  0  0  0  0  0  0  0  0  0  0  0
  1  2  1  0  0  0
  2  3  2  0  0  0
  3  4  1  0  0  0
  4  5  2  0  0  0
  5  6  1  0  0  0
  5  7  1  0  0  0
  7  8  2  0  0  0
  8 11  1  0  0  0
 11 12  2  0  0  0
 12 13  1  0  0  0
 13 14  2  0  0  0
 14 15  1  0  0  0
 15 16  2  0  0  0
 14 17  1  0  0  0
 17 18  1  0  0  0
 17 19  2  0  0  0
  4 21  1  0  0  0
 21 22  1  0  0  0
 21 23  1  0  0  0
 21 24  1  0  0  0
  8  2  1  0  0  0
 16 11  1  0  0  0
  1  9  1  0  0  0
  1 10  1  0  0  0
 18 20  1  0  0  0
M  END
> <minimizedAffinity>
-10.27038

> <CNNscore>
0.5543524027

> <CNNaffinity>
5.9058446884

> <CNN_VS>
3.2739191055

> <CNNaffinity_variance>
0.2421173304

$$$$
[H]OC(=O)c1c([H])c([H])c(-c2c([H])c(F)c(C(F)(F)F)c([H])c2N([H])[H])c([H])c1[H]


 24 25  0  0  0  0  0  0  0  0999 V2000
   64.6589   -9.7147   -7.5864 N   0  0  0  0  0  0  0  0  0  0  0  0
   63.5873   -9.1811   -6.8233 C   0  0  0  0  0  0  0  0  0  0  0  0
   63.3911   -9.6705   -5.5232 C   0  0  0  0  0  0  0  0  0  0  0  0
   62.3482   -9.1542   -4.7904 C   0  0  0  0  0  0  0  0  0  0  0  0
   61.5198   -8.1842   -5.3177 C   0  0  0  0  0  0  0  0  0  0  0  0
   60.5142   -7.7247   -4.5353 F   0  0  0  0  0  0  0  0  0  0  0  0
   61.7479   -7.7334   -6.5950 C   0  0  0  0  0  0  0  0  0  0  0  0
   62.7802   -8.2231   -7.3622 C   0  0  0  0  0  0  0  0  0  0  0  0
   65.6558   -9.4555   -7.3749 H   0  0  0  0  0  0  0  0  0  0  0  0
   64.5094  -10.3843   -8.3872 H   0  0  0  0  0  0  0  0  0  0  0  0
   62.9694   -7.6987   -8.7036 C   0  0  0  0  0  0  0  0  0  0  0  0
   64.1271   -7.0673   -9.1005 C   0  0  0  0  0  0  0  0  0  0  0  0
   64.2455   -6.6032  -10.3687 C   0  0  0  0  0  0  0  0  0  0  0  0
   63.2411   -6.7364  -11.2979 C   0  0  0  0  0  0  0  0  0  0  0  0
   62.0538   -7.3688  -10.9370 C   0  0  0  0  0  0  0  0  0  0  0  0
   61.9523   -7.8305   -9.6539 C   0  0  0  0  0  0  0  0  0  0  0  0
   63.4406   -6.2128  -12.6409 C   0  0  0  0  0  0  0  0  0  0  0  0
   63.7633   -4.8827  -12.8502 O   0  0  0  0  0  0  0  0  0  0  0  0
   63.3140   -6.9939  -13.6128 O   0  0  0  0  0  0  0  0  0  0  0  0
   62.9885   -4.2830  -13.1696 H   0  0  0  0  0  0  0  0  0  0  0  0
   62.1057   -9.6447   -3.4111 C   0  0  0  0  0  0  0  0  0  0  0  0
   62.8120  -10.8071   -3.1768 F   0  0  0  0  0  0  0  0  0  0  0  0
   62.4130   -8.6422   -2.5196 F   0  0  0  0  0  0  0  0  0  0  0  0
   60.7568   -9.9510   -3.3307 F   0  0  0  0  0  0  0  0  0  0  0  0
  1  2  1  0  0  0
  2  3  2  0  0  0
  3  4  1  0  0  0
  4  5  2  0  0  0
  5  6  1  0  0  0
  5  7  1  0  0  0
  7  8  2  0  0  0
  8 11  1  0  0  0
 11 12  2  0  0  0
 12 13  1  0  0  0
 13 14  2  0  0  0
 14 15  1  0  0  0
 15 16  2  0  0  0
 14 17  1  0  0  0
 17 18  1  0  0  0
 17 19  2  0  0  0
  4 21  1  0  0  0
 21 22  1  0  0  0
 21 23  1  0  0  0
 21 24  1  0  0  0
  8  2  1  0  0  0
 16 11  1  0  0  0
  1  9  1  0  0  0
  1 10  1  0  0  0
 18 20  1  0  0  0
M  END
> <minimizedAffinity>
-2.46424

> <CNNscore>
0.5406067967

> <CNNaffinity>
4.0105333328

> <CNN_VS>
2.1681215763

> <CNNaffinity_variance>
0.1556841433

$$$$
[H]OC(=O)c1c([H])c([H])c(-c2c([H])c(F)c(C(F)(F)F)c([H])c2N([H])[H])c([H])c1[H]


 24 25  0  0  0  0  0  0  0  0999 V2000
   65.3439   -8.3984   -9.7501 N   0  0  0  0  0  0  0  0  0  0  0  0
   64.4184   -7.6522  -10.5260 C   0  0  0  0  0  0  0  0  0  0  0  0
   64.9158   -6.8650  -11.5753 C   0  0  0  0  0  0  0  0  0  0  0  0
   64.0155   -6.1398  -12.3202 C   0  0  0  0  0  0  0  0  0  0  0  0
   62.6639   -6.1851  -12.0440 C   0  0  0  0  0  0  0  0  0  0  0  0
   61.8393   -5.4434  -12.8215 F   0  0  0  0  0  0  0  0  0  0  0  0
   62.2199   -6.9693  -11.0074 C   0  0  0  0  0  0  0  0  0  0  0  0
   63.0869   -7.7106  -10.2374 C   0  0  0  0  0  0  0  0  0  0  0  0
   65.8014   -9.2627  -10.1365 H   0  0  0  0  0  0  0  0  0  0  0  0
   65.6122   -8.1266   -8.7671 H   0  0  0  0  0  0  0  0  0  0  0  0
   62.5507   -8.5235   -9.1595 C   0  0  0  0  0  0  0  0  0  0  0  0
   62.1499   -9.8287   -9.3389 C   0  0  0  0  0  0  0  0  0  0  0  0
   61.6616  -10.5379   -8.2918 C   0  0  0  0  0  0  0  0  0  0  0  0
   61.5453  -10.0028   -7.0308 C   0  0  0  0  0  0  0  0  0  0  0  0
   61.9394   -8.6858   -6.8068 C   0  0  0  0  0  0  0  0  0  0  0  0
   62.4294   -7.9860   -7.8745 C   0  0  0  0  0  0  0  0  0  0  0  0
   61.0119  -10.8254   -5.9555 C   0  0  0  0  0  0  0  0  0  0  0  0
   60.8707  -10.3236   -4.6727 O   0  0  0  0  0  0  0  0  0  0  0  0
   60.6798  -12.0060   -6.2134 O   0  0  0  0  0  0  0  0  0  0  0  0
   61.5897  -10.6225   -3.9977 H   0  0  0  0  0  0  0  0  0  0  0  0
   64.5000   -5.2940  -13.4389 C   0  0  0  0  0  0  0  0  0  0  0  0
   65.7550   -4.7913  -13.1608 F   0  0  0  0  0  0  0  0  0  0  0  0
   64.4628   -6.0276  -14.6028 F   0  0  0  0  0  0  0  0  0  0  0  0
   63.6295   -4.2199  -13.5297 F   0  0  0  0  0  0  0  0  0  0  0  0
  1  2  1  0  0  0
  2  3  2  0  0  0
  3  4  1  0  0  0
  4  5  2  0  0  0
  5  6  1  0  0  0
  5  7  1  0  0  0
  7  8  2  0  0  0
  8 11  1  0  0  0
 11 12  2  0  0  0
 12 13  1  0  0  0
 13 14  2  0  0  0
 14 15  1  0  0  0
 15 16  2  0  0  0
 14 17  1  0  0  0
 17 18  1  0  0  0
 17 19  2  0  0  0
  4 21  1  0  0  0
 21 22  1  0  0  0
 21 23  1  0  0  0
 21 24  1  0  0  0
  8  2  1  0  0  0
 16 11  1  0  0  0
  1  9  1  0  0  0
  1 10  1  0  0  0
 18 20  1  0  0  0
M  END
> <minimizedAffinity>
-2.57763

> <CNNscore>
0.5167734027

> <CNNaffinity>
3.7975718975

> <CNN_VS>
1.9624841213

> <CNNaffinity_variance>
0.2005387545

$$$$
[H]OC(=O)c1c([H])c([H])c(-c2c([H])c(F)c(C(F)(F)F)c([H])c2N([H])[H])c([H])c1[H]


 24 25  0  0  0  0  0  0  0  0999 V2000
   58.0686   -5.9715   -8.4697 N   0  0  0  0  0  0  0  0  0  0  0  0
   56.8092   -5.4877   -8.0278 C   0  0  0  0  0  0  0  0  0  0  0  0
   56.4188   -5.7634   -6.7087 C   0  0  0  0  0  0  0  0  0  0  0  0
   55.1955   -5.2972   -6.2875 C   0  0  0  0  0  0  0  0  0  0  0  0
   54.3768   -4.5800   -7.1364 C   0  0  0  0  0  0  0  0  0  0  0  0
   53.1868   -4.1543   -6.6494 F   0  0  0  0  0  0  0  0  0  0  0  0
   54.7984   -4.3327   -8.4201 C   0  0  0  0  0  0  0  0  0  0  0  0
   56.0150   -4.7809   -8.8817 C   0  0  0  0  0  0  0  0  0  0  0  0
   58.9639   -5.5241   -8.1471 H   0  0  0  0  0  0  0  0  0  0  0  0
   58.1650   -6.7877   -9.1304 H   0  0  0  0  0  0  0  0  0  0  0  0
   56.4026   -4.4797  -10.2488 C   0  0  0  0  0  0  0  0  0  0  0  0
   57.5502   -3.7859  -10.5624 C   0  0  0  0  0  0  0  0  0  0  0  0
   57.8605   -3.5397  -11.8589 C   0  0  0  0  0  0  0  0  0  0  0  0
   57.0650   -3.9597  -12.8986 C   0  0  0  0  0  0  0  0  0  0  0  0
   55.8953   -4.6645  -12.6245 C   0  0  0  0  0  0  0  0  0  0  0  0
   55.5986   -4.9036  -11.3113 C   0  0  0  0  0  0  0  0  0  0  0  0
   57.4630   -3.6582  -14.2654 C   0  0  0  0  0  0  0  0  0  0  0  0
   57.8896   -4.6573  -15.1239 O   0  0  0  0  0  0  0  0  0  0  0  0
   57.4124   -2.4681  -14.6549 O   0  0  0  0  0  0  0  0  0  0  0  0
   58.9082   -4.7122  -15.2698 H   0  0  0  0  0  0  0  0  0  0  0  0
   54.7443   -5.5672   -4.9000 C   0  0  0  0  0  0  0  0  0  0  0  0
   54.6242   -4.3900   -4.1896 F   0  0  0  0  0  0  0  0  0  0  0  0
   53.5731   -6.2887   -4.9430 F   0  0  0  0  0  0  0  0  0  0  0  0
   55.7404   -6.3194   -4.2985 F   0  0  0  0  0  0  0  0  0  0  0  0
  1  2  1  0  0  0
  2  3  2  0  0  0
  3  4  1  0  0  0
  4  5  2  0  0  0
  5  6  1  0  0  0
  5  7  1  0  0  0
  7  8  2  0  0  0
  8 11  1  0  0  0
 11 12  2  0  0  0
 12 13  1  0  0  0
 13 14  2  0  0  0
 14 15  1  0  0  0
 15 16  2  0  0  0
 14 17  1  0  0  0
 17 18  1  0  0  0
 17 19  2  0  0  0
  4 21  1  0  0  0
 21 22  1  0  0  0
 21 23  1  0  0  0
 21 24  1  0  0  0
  8  2  1  0  0  0
 16 11  1  0  0  0
  1  9  1  0  0  0
  1 10  1  0  0  0
 18 20  1  0  0  0
M  END
> <minimizedAffinity>
-2.69699

> <CNNscore>
0.4493595958

> <CNNaffinity>
5.0495691299

> <CNN_VS>
2.2690722942

> <CNNaffinity_variance>
0.5803841352

$$$$
[H]OC(=O)c1c([H])c([H])c(-c2c([H])c(F)c(C(F)(F)F)c([H])c2N([H])[H])c([H])c1[H]


 24 25  0  0  0  0  0  0  0  0999 V2000
   58.6379   -5.3212  -10.7941 N   0  0  0  0  0  0  0  0  0  0  0  0
   57.4276   -4.8502  -10.2208 C   0  0  0  0  0  0  0  0  0  0  0  0
   57.3030   -4.8730   -8.8236 C   0  0  0  0  0  0  0  0  0  0  0  0
   56.1263   -4.4208   -8.2737 C   0  0  0  0  0  0  0  0  0  0  0  0
   55.0994   -3.9586   -9.0719 C   0  0  0  0  0  0  0  0  0  0  0  0
   53.9712   -3.5297   -8.4573 F   0  0  0  0  0  0  0  0  0  0  0  0
   55.2638   -3.9538  -10.4356 C   0  0  0  0  0  0  0  0  0  0  0  0
   56.4249   -4.3974  -11.0265 C   0  0  0  0  0  0  0  0  0  0  0  0
   59.5202   -4.7517  -10.7400 H   0  0  0  0  0  0  0  0  0  0  0  0
   58.7090   -6.2479  -11.2925 H   0  0  0  0  0  0  0  0  0  0  0  0
   56.5358   -4.3599  -12.4744 C   0  0  0  0  0  0  0  0  0  0  0  0
   57.3319   -3.4529  -13.1377 C   0  0  0  0  0  0  0  0  0  0  0  0
   57.3971   -3.4711  -14.4917 C   0  0  0  0  0  0  0  0  0  0  0  0
   56.6897   -4.3732  -15.2505 C   0  0  0  0  0  0  0  0  0  0  0  0
   55.8726   -5.3076  -14.6186 C   0  0  0  0  0  0  0  0  0  0  0  0
   55.8192   -5.2742  -13.2527 C   0  0  0  0  0  0  0  0  0  0  0  0
   56.8101   -4.3323  -16.7001 C   0  0  0  0  0  0  0  0  0  0  0  0
   55.8944   -3.6413  -17.4754 O   0  0  0  0  0  0  0  0  0  0  0  0
   57.7655   -4.9387  -17.2387 O   0  0  0  0  0  0  0  0  0  0  0  0
   55.1920   -4.2222  -17.9561 H   0  0  0  0  0  0  0  0  0  0  0  0
   55.9534   -4.4282   -6.8000 C   0  0  0  0  0  0  0  0  0  0  0  0
   56.3077   -3.2074   -6.2623 F   0  0  0  0  0  0  0  0  0  0  0  0
   54.6586   -4.7885   -6.5035 F   0  0  0  0  0  0  0  0  0  0  0  0
   56.8330   -5.3760   -6.3024 F   0  0  0  0  0  0  0  0  0  0  0  0
  1  2  1  0  0  0
  2  3  2  0  0  0
  3  4  1  0  0  0
  4  5  2  0  0  0
  5  6  1  0  0  0
  5  7  1  0  0  0
  7  8  2  0  0  0
  8 11  1  0  0  0
 11 12  2  0  0  0
 12 13  1  0  0  0
 13 14  2  0  0  0
 14 15  1  0  0  0
 15 16  2  0  0  0
 14 17  1  0  0  0
 17 18  1  0  0  0
 17 19  2  0  0  0
  4 21  1  0  0  0
 21 22  1  0  0  0
 21 23  1  0  0  0
 21 24  1  0  0  0
  8  2  1  0  0  0
 16 11  1  0  0  0
  1  9  1  0  0  0
  1 10  1  0  0  0
 18 20  1  0  0  0
M  END
> <minimizedAffinity>
-7.29358

> <CNNscore>
0.3612480760

> <CNNaffinity>
4.8010549545

> <CNN_VS>
1.7343719006

> <CNNaffinity_variance>
0.1601860225

$$$$
[H]c1c([H])c(C(=O)N([H])[H])c([H])c(-n2c([H])nc3c(N([H])[H])nc(N4C([H])([H])C([H])([H])C([H])([H])C4([H])C([H])(C([H])([H])[H])C([H])([H])[H])nc32)c1[H]


 31 34  0  0  0  0  0  0  0  0999 V2000
   52.1701   -5.1518   -5.4373 C   0  0  0  0  0  0  0  0  0  0  0  0
   50.9931   -4.5512   -5.5972 N   0  0  0  0  0  0  0  0  0  0  0  0
   50.6755   -3.7273   -6.6106 C   0  0  0  0  0  0  0  0  0  0  0  0
   49.4053   -3.1114   -6.7360 N   0  0  0  0  0  0  0  0  0  0  0  0
   51.6289   -3.4763   -7.5623 C   0  0  0  0  0  0  0  0  0  0  0  0
   51.7152   -2.7467   -8.6847 N   0  0  0  0  0  0  0  0  0  0  0  0
   52.9241   -2.8745   -9.2374 C   0  0  0  0  0  0  0  0  0  0  0  0
   53.6304   -3.7073   -8.4490 N   0  0  0  0  0  0  0  0  0  0  0  0
   52.8532   -4.0970   -7.4019 C   0  0  0  0  0  0  0  0  0  0  0  0
   53.1185   -4.9135   -6.3674 N   0  0  0  0  0  0  0  0  0  0  0  0
   49.3357   -2.1605   -7.1752 H   0  0  0  0  0  0  0  0  0  0  0  0
   48.5581   -3.6109   -6.3904 H   0  0  0  0  0  0  0  0  0  0  0  0
   54.9783   -4.1452   -8.6323 C   0  0  0  0  0  0  0  0  0  0  0  0
   55.6822   -4.7307   -7.6003 C   0  0  0  0  0  0  0  0  0  0  0  0
   56.9860   -5.1468   -7.8010 C   0  0  0  0  0  0  0  0  0  0  0  0
   57.6396   -5.0058   -9.0066 C   0  0  0  0  0  0  0  0  0  0  0  0
   56.9334   -4.4157  -10.0504 C   0  0  0  0  0  0  0  0  0  0  0  0
   55.6341   -4.0051   -9.8375 C   0  0  0  0  0  0  0  0  0  0  0  0
   57.5762   -4.2414  -11.3485 C   0  0  0  0  0  0  0  0  0  0  0  0
   57.1946   -3.2017  -12.2127 N   0  0  0  0  0  0  0  0  0  0  0  0
   58.4841   -5.0440  -11.6826 O   0  0  0  0  0  0  0  0  0  0  0  0
   56.8210   -2.2850  -11.8974 H   0  0  0  0  0  0  0  0  0  0  0  0
   57.2795   -3.3254  -13.2517 H   0  0  0  0  0  0  0  0  0  0  0  0
   53.7937   -6.4080   -3.9389 C   0  0  0  0  0  0  0  0  0  0  0  0
   53.5843   -7.5778   -3.0506 C   0  0  0  0  0  0  0  0  0  0  0  0
   52.2663   -7.3370   -2.4037 C   0  0  0  0  0  0  0  0  0  0  0  0
   51.4727   -6.6290   -3.4779 C   0  0  0  0  0  0  0  0  0  0  0  0
   52.4533   -6.0252   -4.3304 N   0  0  0  0  0  0  0  0  0  0  0  0
   54.7020   -5.3404   -1.8460 C   0  0  0  0  0  0  0  0  0  0  0  0
   54.5163   -5.2545   -3.3224 C   0  0  0  0  0  0  0  0  0  0  0  0
   55.8735   -5.0386   -3.9790 C   0  0  0  0  0  0  0  0  0  0  0  0
 29 30  1  0  0  0
 30 31  1  0  0  0
 30 24  1  0  0  0
 24 25  1  0  0  0
 25 26  1  0  0  0
 26 27  1  0  0  0
 27 28  1  0  0  0
 28  1  1  0  0  0
  1  2  2  0  0  0
  2  3  1  0  0  0
  3  4  1  0  0  0
  3  5  2  0  0  0
  5  6  1  0  0  0
  6  7  2  0  0  0
  7  8  1  0  0  0
  8 13  1  0  0  0
 13 14  2  0  0  0
 14 15  1  0  0  0
 15 16  2  0  0  0
 16 17  1  0  0  0
 17 18  2  0  0  0
 17 19  1  0  0  0
 19 20  1  0  0  0
 19 21  2  0  0  0
  8  9  1  0  0  0
  9 10  2  0  0  0
 28 24  1  0  0  0
 10  1  1  0  0  0
  9  5  1  0  0  0
 18 13  1  0  0  0
  4 11  1  0  0  0
  4 12  1  0  0  0
 20 22  1  0  0  0
 20 23  1  0  0  0
M  END
> <minimizedAffinity>
-9.98847

> <CNNscore>
0.7220771909

> <CNNaffinity>
7.3483085632

> <CNN_VS>
5.3060460091

> <CNNaffinity_variance>
0.2577610612

$$$$
[H]c1c([H])c(C(=O)N([H])[H])c([H])c(-n2c([H])nc3c(N([H])[H])nc(N4C([H])([H])C([H])([H])C([H])([H])C4([H])C([H])(C([H])([H])[H])C([H])([H])[H])nc32)c1[H]


 31 34  0  0  0  0  0  0  0  0999 V2000
   53.0461   -5.5535   -5.4344 C   0  0  0  0  0  0  0  0  0  0  0  0
   51.8098   -5.0603   -5.4366 N   0  0  0  0  0  0  0  0  0  0  0  0
   51.2929   -4.2707   -6.3936 C   0  0  0  0  0  0  0  0  0  0  0  0
   49.9677   -3.7704   -6.3496 N   0  0  0  0  0  0  0  0  0  0  0  0
   52.0899   -3.9386   -7.4576 C   0  0  0  0  0  0  0  0  0  0  0  0
   51.9663   -3.2074   -8.5755 N   0  0  0  0  0  0  0  0  0  0  0  0
   53.1005   -3.2289   -9.2800 C   0  0  0  0  0  0  0  0  0  0  0  0
   53.9732   -3.9935   -8.5960 N   0  0  0  0  0  0  0  0  0  0  0  0
   53.3748   -4.4477   -7.4611 C   0  0  0  0  0  0  0  0  0  0  0  0
   53.8421   -5.2345   -6.4764 N   0  0  0  0  0  0  0  0  0  0  0  0
   49.7583   -2.8307   -6.7681 H   0  0  0  0  0  0  0  0  0  0  0  0
   49.2194   -4.3422   -5.9025 H   0  0  0  0  0  0  0  0  0  0  0  0
   55.3198   -4.3104   -8.9546 C   0  0  0  0  0  0  0  0  0  0  0  0
   56.1917   -4.8537   -8.0337 C   0  0  0  0  0  0  0  0  0  0  0  0
   57.4906   -5.1524   -8.4036 C   0  0  0  0  0  0  0  0  0  0  0  0
   57.9766   -4.9320   -9.6748 C   0  0  0  0  0  0  0  0  0  0  0  0
   57.1006   -4.3840  -10.6069 C   0  0  0  0  0  0  0  0  0  0  0  0
   55.8079   -4.0907  -10.2256 C   0  0  0  0  0  0  0  0  0  0  0  0
   57.5615   -4.1295  -11.9676 C   0  0  0  0  0  0  0  0  0  0  0  0
   56.8390   -3.2915  -12.8330 N   0  0  0  0  0  0  0  0  0  0  0  0
   58.6245   -4.6775  -12.3548 O   0  0  0  0  0  0  0  0  0  0  0  0
   56.2549   -2.4909  -12.5212 H   0  0  0  0  0  0  0  0  0  0  0  0
   56.8689   -3.4567  -13.8693 H   0  0  0  0  0  0  0  0  0  0  0  0
   53.0811   -6.3192   -3.0112 C   0  0  0  0  0  0  0  0  0  0  0  0
   54.1148   -7.0566   -2.2437 C   0  0  0  0  0  0  0  0  0  0  0  0
   54.6280   -8.0883   -3.1850 C   0  0  0  0  0  0  0  0  0  0  0  0
   54.5517   -7.4040   -4.5307 C   0  0  0  0  0  0  0  0  0  0  0  0
   53.5454   -6.3951   -4.3805 N   0  0  0  0  0  0  0  0  0  0  0  0
   51.5371   -8.0221   -1.9812 C   0  0  0  0  0  0  0  0  0  0  0  0
   51.6904   -6.8523   -2.8921 C   0  0  0  0  0  0  0  0  0  0  0  0
   50.7160   -5.7625   -2.4642 C   0  0  0  0  0  0  0  0  0  0  0  0
 29 30  1  0  0  0
 30 31  1  0  0  0
 30 24  1  0  0  0
 24 25  1  0  0  0
 25 26  1  0  0  0
 26 27  1  0  0  0
 27 28  1  0  0  0
 28  1  1  0  0  0
  1  2  2  0  0  0
  2  3  1  0  0  0
  3  4  1  0  0  0
  3  5  2  0  0  0
  5  6  1  0  0  0
  6  7  2  0  0  0
  7  8  1  0  0  0
  8 13  1  0  0  0
 13 14  2  0  0  0
 14 15  1  0  0  0
 15 16  2  0  0  0
 16 17  1  0  0  0
 17 18  2  0  0  0
 17 19  1  0  0  0
 19 20  1  0  0  0
 19 21  2  0  0  0
  8  9  1  0  0  0
  9 10  2  0  0  0
 28 24  1  0  0  0
 10  1  1  0  0  0
  9  5  1  0  0  0
 18 13  1  0  0  0
  4 11  1  0  0  0
  4 12  1  0  0  0
 20 22  1  0  0  0
 20 23  1  0  0  0
M  END
> <minimizedAffinity>
-10.10368

> <CNNscore>
0.6114230752

> <CNNaffinity>
7.1081032753

> <CNN_VS>
4.3460583687

> <CNNaffinity_variance>
0.2456114590

$$$$
[H]c1c([H])c(C(=O)N([H])[H])c([H])c(-n2c([H])nc3c(N([H])[H])nc(N4C([H])([H])C([H])([H])C([H])([H])C4([H])C([H])(C([H])([H])[H])C([H])([H])[H])nc32)c1[H]


 31 34  0  0  0  0  0  0  0  0999 V2000
   53.1243   -3.9031   -7.9762 C   0  0  0  0  0  0  0  0  0  0  0  0
   53.6595   -3.5936   -9.1549 N   0  0  0  0  0  0  0  0  0  0  0  0
   54.9094   -3.9007   -9.5423 C   0  0  0  0  0  0  0  0  0  0  0  0
   55.4334   -3.5477  -10.8109 N   0  0  0  0  0  0  0  0  0  0  0  0
   55.7077   -4.5866   -8.6649 C   0  0  0  0  0  0  0  0  0  0  0  0
   56.9607   -5.0659   -8.6595 N   0  0  0  0  0  0  0  0  0  0  0  0
   57.2277   -5.6724   -7.5002 C   0  0  0  0  0  0  0  0  0  0  0  0
   56.1175   -5.5793   -6.7433 N   0  0  0  0  0  0  0  0  0  0  0  0
   55.1577   -4.9109   -7.4392 C   0  0  0  0  0  0  0  0  0  0  0  0
   53.8994   -4.5787   -7.1021 N   0  0  0  0  0  0  0  0  0  0  0  0
   56.4572   -3.3358  -10.9039 H   0  0  0  0  0  0  0  0  0  0  0  0
   54.7949   -3.5036  -11.6339 H   0  0  0  0  0  0  0  0  0  0  0  0
   55.9220   -6.0812   -5.4197 C   0  0  0  0  0  0  0  0  0  0  0  0
   55.3775   -7.3308   -5.2064 C   0  0  0  0  0  0  0  0  0  0  0  0
   55.1976   -7.7958   -3.9162 C   0  0  0  0  0  0  0  0  0  0  0  0
   55.5409   -7.0615   -2.8010 C   0  0  0  0  0  0  0  0  0  0  0  0
   56.0904   -5.8005   -3.0115 C   0  0  0  0  0  0  0  0  0  0  0  0
   56.2647   -5.3483   -4.3028 C   0  0  0  0  0  0  0  0  0  0  0  0
   56.4722   -4.9798   -1.8672 C   0  0  0  0  0  0  0  0  0  0  0  0
   57.2843   -3.8448   -2.0278 N   0  0  0  0  0  0  0  0  0  0  0  0
   56.0587   -5.3086   -0.7266 O   0  0  0  0  0  0  0  0  0  0  0  0
   57.3083   -3.2580   -2.8846 H   0  0  0  0  0  0  0  0  0  0  0  0
   57.9211   -3.5413   -1.2503 H   0  0  0  0  0  0  0  0  0  0  0  0
   50.8434   -4.4724   -7.0104 C   0  0  0  0  0  0  0  0  0  0  0  0
   49.5263   -3.8119   -7.1839 C   0  0  0  0  0  0  0  0  0  0  0  0
   49.8215   -2.3539   -7.1524 C   0  0  0  0  0  0  0  0  0  0  0  0
   51.1825   -2.2577   -7.8031 C   0  0  0  0  0  0  0  0  0  0  0  0
   51.7781   -3.5474   -7.6162 N   0  0  0  0  0  0  0  0  0  0  0  0
   50.1748   -4.5031   -4.5821 C   0  0  0  0  0  0  0  0  0  0  0  0
   51.2315   -4.7707   -5.5987 C   0  0  0  0  0  0  0  0  0  0  0  0
   51.7074   -6.2098   -5.4491 C   0  0  0  0  0  0  0  0  0  0  0  0
 29 30  1  0  0  0
 30 31  1  0  0  0
 30 24  1  0  0  0
 24 25  1  0  0  0
 25 26  1  0  0  0
 26 27  1  0  0  0
 27 28  1  0  0  0
 28  1  1  0  0  0
  1  2  2  0  0  0
  2  3  1  0  0  0
  3  4  1  0  0  0
  3  5  2  0  0  0
  5  6  1  0  0  0
  6  7  2  0  0  0
  7  8  1  0  0  0
  8 13  1  0  0  0
 13 14  2  0  0  0
 14 15  1  0  0  0
 15 16  2  0  0  0
 16 17  1  0  0  0
 17 18  2  0  0  0
 17 19  1  0  0  0
 19 20  1  0  0  0
 19 21  2  0  0  0
  8  9  1  0  0  0
  9 10  2  0  0  0
 28 24  1  0  0  0
 10  1  1  0  0  0
  9  5  1  0  0  0
 18 13  1  0  0  0
  4 11  1  0  0  0
  4 12  1  0  0  0
 20 22  1  0  0  0
 20 23  1  0  0  0
M  END
> <minimizedAffinity>
-9.32858

> <CNNscore>
0.5933064222

> <CNNaffinity>
7.0586800575

> <CNN_VS>
4.1879601479

> <CNNaffinity_variance>
0.0852265507

$$$$
[H]c1c([H])c(C(=O)N([H])[H])c([H])c(-n2c([H])nc3c(N([H])[H])nc(N4C([H])([H])C([H])([H])C([H])([H])C4([H])C([H])(C([H])([H])[H])C([H])([H])[H])nc32)c1[H]


 31 34  0  0  0  0  0  0  0  0999 V2000
   53.3625   -5.4880   -5.9237 C   0  0  0  0  0  0  0  0  0  0  0  0
   52.1449   -4.9839   -5.7370 N   0  0  0  0  0  0  0  0  0  0  0  0
   51.5141   -4.1501   -6.5816 C   0  0  0  0  0  0  0  0  0  0  0  0
   50.2147   -3.6401   -6.3366 N   0  0  0  0  0  0  0  0  0  0  0  0
   52.1636   -3.7807   -7.7302 C   0  0  0  0  0  0  0  0  0  0  0  0
   51.8996   -3.0019   -8.7902 N   0  0  0  0  0  0  0  0  0  0  0  0
   52.9269   -3.0039   -9.6433 C   0  0  0  0  0  0  0  0  0  0  0  0
   53.8733   -3.8045   -9.1165 N   0  0  0  0  0  0  0  0  0  0  0  0
   53.4283   -4.3007   -7.9299 C   0  0  0  0  0  0  0  0  0  0  0  0
   54.0138   -5.1325   -7.0510 N   0  0  0  0  0  0  0  0  0  0  0  0
   49.9641   -2.6817   -6.6841 H   0  0  0  0  0  0  0  0  0  0  0  0
   49.5260   -4.2235   -5.8149 H   0  0  0  0  0  0  0  0  0  0  0  0
   55.1537   -4.1182   -9.6684 C   0  0  0  0  0  0  0  0  0  0  0  0
   55.4246   -3.9017  -11.0038 C   0  0  0  0  0  0  0  0  0  0  0  0
   56.6712   -4.2130  -11.5159 C   0  0  0  0  0  0  0  0  0  0  0  0
   57.6860   -4.7414  -10.7466 C   0  0  0  0  0  0  0  0  0  0  0  0
   57.4171   -4.9614   -9.3991 C   0  0  0  0  0  0  0  0  0  0  0  0
   56.1701   -4.6469   -8.9007 C   0  0  0  0  0  0  0  0  0  0  0  0
   58.4546   -5.5190   -8.5381 C   0  0  0  0  0  0  0  0  0  0  0  0
   59.6706   -5.9773   -9.0716 N   0  0  0  0  0  0  0  0  0  0  0  0
   58.2395   -5.5826   -7.3012 O   0  0  0  0  0  0  0  0  0  0  0  0
   60.1157   -5.5947   -9.9287 H   0  0  0  0  0  0  0  0  0  0  0  0
   60.1905   -6.7567   -8.5979 H   0  0  0  0  0  0  0  0  0  0  0  0
   53.8376   -6.2561   -3.5481 C   0  0  0  0  0  0  0  0  0  0  0  0
   54.9318   -7.0969   -3.0030 C   0  0  0  0  0  0  0  0  0  0  0  0
   55.1252   -8.1748   -4.0103 C   0  0  0  0  0  0  0  0  0  0  0  0
   54.8323   -7.4846   -5.3229 C   0  0  0  0  0  0  0  0  0  0  0  0
   53.9883   -6.3778   -4.9830 N   0  0  0  0  0  0  0  0  0  0  0  0
   52.3849   -7.8034   -2.1914 C   0  0  0  0  0  0  0  0  0  0  0  0
   52.4580   -6.6434   -3.1246 C   0  0  0  0  0  0  0  0  0  0  0  0
   51.7190   -5.4643   -2.5055 C   0  0  0  0  0  0  0  0  0  0  0  0
 29 30  1  0  0  0
 30 31  1  0  0  0
 30 24  1  0  0  0
 24 25  1  0  0  0
 25 26  1  0  0  0
 26 27  1  0  0  0
 27 28  1  0  0  0
 28  1  1  0  0  0
  1  2  2  0  0  0
  2  3  1  0  0  0
  3  4  1  0  0  0
  3  5  2  0  0  0
  5  6  1  0  0  0
  6  7  2  0  0  0
  7  8  1  0  0  0
  8 13  1  0  0  0
 13 14  2  0  0  0
 14 15  1  0  0  0
 15 16  2  0  0  0
 16 17  1  0  0  0
 17 18  2  0  0  0
 17 19  1  0  0  0
 19 20  1  0  0  0
 19 21  2  0  0  0
  8  9  1  0  0  0
  9 10  2  0  0  0
 28 24  1  0  0  0
 10  1  1  0  0  0
  9  5  1  0  0  0
 18 13  1  0  0  0
  4 11  1  0  0  0
  4 12  1  0  0  0
 20 22  1  0  0  0
 20 23  1  0  0  0
M  END
> <minimizedAffinity>
-9.14585

> <CNNscore>
0.5719662309

> <CNNaffinity>
6.9957170486

> <CNN_VS>
4.0013136864

> <CNNaffinity_variance>
0.1706080586

$$$$
[H]c1c([H])c(C(=O)N([H])[H])c([H])c(-n2c([H])nc3c(N([H])[H])nc(N4C([H])([H])C([H])([H])C([H])([H])C4([H])C([H])(C([H])([H])[H])C([H])([H])[H])nc32)c1[H]


 31 34  0  0  0  0  0  0  0  0999 V2000
   52.6220   -3.8529   -7.6171 C   0  0  0  0  0  0  0  0  0  0  0  0
   51.5664   -3.1128   -7.9479 N   0  0  0  0  0  0  0  0  0  0  0  0
   50.4247   -3.0337   -7.2430 C   0  0  0  0  0  0  0  0  0  0  0  0
   49.3271   -2.2291   -7.6384 N   0  0  0  0  0  0  0  0  0  0  0  0
   50.3249   -3.7675   -6.0901 C   0  0  0  0  0  0  0  0  0  0  0  0
   49.4008   -3.9628   -5.1375 N   0  0  0  0  0  0  0  0  0  0  0  0
   49.8519   -4.8121   -4.2110 C   0  0  0  0  0  0  0  0  0  0  0  0
   51.0970   -5.1701   -4.5793 N   0  0  0  0  0  0  0  0  0  0  0  0
   51.4178   -4.5382   -5.7412 C   0  0  0  0  0  0  0  0  0  0  0  0
   52.5376   -4.5809   -6.4839 N   0  0  0  0  0  0  0  0  0  0  0  0
   48.3514   -2.5412   -7.4095 H   0  0  0  0  0  0  0  0  0  0  0  0
   49.5039   -1.3386   -8.1510 H   0  0  0  0  0  0  0  0  0  0  0  0
   51.9823   -6.0633   -3.9007 C   0  0  0  0  0  0  0  0  0  0  0  0
   51.6466   -6.6031   -2.6761 C   0  0  0  0  0  0  0  0  0  0  0  0
   52.5195   -7.4655   -2.0377 C   0  0  0  0  0  0  0  0  0  0  0  0
   53.7390   -7.8261   -2.5702 C   0  0  0  0  0  0  0  0  0  0  0  0
   54.0817   -7.2840   -3.8051 C   0  0  0  0  0  0  0  0  0  0  0  0
   53.2026   -6.4253   -4.4314 C   0  0  0  0  0  0  0  0  0  0  0  0
   55.3605   -7.6312   -4.4156 C   0  0  0  0  0  0  0  0  0  0  0  0
   56.5585   -7.5471   -3.6867 N   0  0  0  0  0  0  0  0  0  0  0  0
   55.3716   -8.0098   -5.6142 O   0  0  0  0  0  0  0  0  0  0  0  0
   56.6297   -7.6812   -2.6590 H   0  0  0  0  0  0  0  0  0  0  0  0
   57.4599   -7.3363   -4.1818 H   0  0  0  0  0  0  0  0  0  0  0  0
   55.1384   -3.6177   -7.8846 C   0  0  0  0  0  0  0  0  0  0  0  0
   55.9672   -3.4002   -9.0958 C   0  0  0  0  0  0  0  0  0  0  0  0
   55.3511   -4.2609  -10.1415 C   0  0  0  0  0  0  0  0  0  0  0  0
   53.8775   -4.2177   -9.8077 C   0  0  0  0  0  0  0  0  0  0  0  0
   53.8196   -3.8982   -8.4121 N   0  0  0  0  0  0  0  0  0  0  0  0
   56.7949   -5.4661   -7.4550 C   0  0  0  0  0  0  0  0  0  0  0  0
   55.5947   -4.7186   -6.9833 C   0  0  0  0  0  0  0  0  0  0  0  0
   55.8554   -4.2056   -5.5730 C   0  0  0  0  0  0  0  0  0  0  0  0
 29 30  1  0  0  0
 30 31  1  0  0  0
 30 24  1  0  0  0
 24 25  1  0  0  0
 25 26  1  0  0  0
 26 27  1  0  0  0
 27 28  1  0  0  0
 28  1  1  0  0  0
  1  2  2  0  0  0
  2  3  1  0  0  0
  3  4  1  0  0  0
  3  5  2  0  0  0
  5  6  1  0  0  0
  6  7  2  0  0  0
  7  8  1  0  0  0
  8 13  1  0  0  0
 13 14  2  0  0  0
 14 15  1  0  0  0
 15 16  2  0  0  0
 16 17  1  0  0  0
 17 18  2  0  0  0
 17 19  1  0  0  0
 19 20  1  0  0  0
 19 21  2  0  0  0
  8  9  1  0  0  0
  9 10  2  0  0  0
 28 24  1  0  0  0
 10  1  1  0  0  0
  9  5  1  0  0  0
 18 13  1  0  0  0
  4 11  1  0  0  0
  4 12  1  0  0  0
 20 22  1  0  0  0
 20 23  1  0  0  0
M  END
> <minimizedAffinity>
-8.16857

> <CNNscore>
0.5624811053

> <CNNaffinity>
7.0796766281

> <CNN_VS>
3.9821844101

> <CNNaffinity_variance>
0.1096502915

$$$$
[H]c1c([H])c(C(=O)N([H])[H])c([H])c(-n2c([H])nc3c(N([H])[H])nc(N4C([H])([H])C([H])([H])C([H])([H])C4([H])C([H])(C([H])([H])[H])C([H])([H])[H])nc32)c1[H]


 31 34  0  0  0  0  0  0  0  0999 V2000
   54.1039   -3.8125   -9.2440 C   0  0  0  0  0  0  0  0  0  0  0  0
   53.1108   -2.9594   -9.4838 N   0  0  0  0  0  0  0  0  0  0  0  0
   52.0338   -2.7846   -8.6990 C   0  0  0  0  0  0  0  0  0  0  0  0
   51.0013   -1.8613   -8.9990 N   0  0  0  0  0  0  0  0  0  0  0  0
   51.9366   -3.5373   -7.5581 C   0  0  0  0  0  0  0  0  0  0  0  0
   51.0636   -3.6647   -6.5474 N   0  0  0  0  0  0  0  0  0  0  0  0
   51.4858   -4.5818   -5.6735 C   0  0  0  0  0  0  0  0  0  0  0  0
   52.6593   -5.0542   -6.1360 N   0  0  0  0  0  0  0  0  0  0  0  0
   52.9647   -4.4251   -7.3036 C   0  0  0  0  0  0  0  0  0  0  0  0
   54.0212   -4.5604   -8.1237 N   0  0  0  0  0  0  0  0  0  0  0  0
   50.0162   -2.0788   -8.7089 H   0  0  0  0  0  0  0  0  0  0  0  0
   51.2345   -0.9791   -9.5033 H   0  0  0  0  0  0  0  0  0  0  0  0
   53.4910   -6.0521   -5.5406 C   0  0  0  0  0  0  0  0  0  0  0  0
   54.4092   -6.7544   -6.2938 C   0  0  0  0  0  0  0  0  0  0  0  0
   55.2037   -7.7159   -5.6959 C   0  0  0  0  0  0  0  0  0  0  0  0
   55.1281   -8.0205   -4.3534 C   0  0  0  0  0  0  0  0  0  0  0  0
   54.2034   -7.3146   -3.5898 C   0  0  0  0  0  0  0  0  0  0  0  0
   53.4171   -6.3584   -4.1979 C   0  0  0  0  0  0  0  0  0  0  0  0
   54.0807   -7.5960   -2.1635 C   0  0  0  0  0  0  0  0  0  0  0  0
   55.1039   -8.2575   -1.4644 N   0  0  0  0  0  0  0  0  0  0  0  0
   53.0354   -7.2334   -1.5667 O   0  0  0  0  0  0  0  0  0  0  0  0
   56.1117   -8.2027   -1.7102 H   0  0  0  0  0  0  0  0  0  0  0  0
   54.8699   -8.8552   -0.6336 H   0  0  0  0  0  0  0  0  0  0  0  0
   56.6058   -3.7878   -9.6908 C   0  0  0  0  0  0  0  0  0  0  0  0
   57.3614   -3.6391  -10.9590 C   0  0  0  0  0  0  0  0  0  0  0  0
   56.6028   -4.4444  -11.9539 C   0  0  0  0  0  0  0  0  0  0  0  0
   55.1654   -4.2787  -11.5164 C   0  0  0  0  0  0  0  0  0  0  0  0
   55.2339   -3.9568  -10.1219 N   0  0  0  0  0  0  0  0  0  0  0  0
   58.3257   -5.5603   -9.1959 C   0  0  0  0  0  0  0  0  0  0  0  0
   57.0317   -4.9239   -8.8187 C   0  0  0  0  0  0  0  0  0  0  0  0
   57.0961   -4.5033   -7.3562 C   0  0  0  0  0  0  0  0  0  0  0  0
 29 30  1  0  0  0
 30 31  1  0  0  0
 30 24  1  0  0  0
 24 25  1  0  0  0
 25 26  1  0  0  0
 26 27  1  0  0  0
 27 28  1  0  0  0
 28  1  1  0  0  0
  1  2  2  0  0  0
  2  3  1  0  0  0
  3  4  1  0  0  0
  3  5  2  0  0  0
  5  6  1  0  0  0
  6  7  2  0  0  0
  7  8  1  0  0  0
  8 13  1  0  0  0
 13 14  2  0  0  0
 14 15  1  0  0  0
 15 16  2  0  0  0
 16 17  1  0  0  0
 17 18  2  0  0  0
 17 19  1  0  0  0
 19 20  1  0  0  0
 19 21  2  0  0  0
  8  9  1  0  0  0
  9 10  2  0  0  0
 28 24  1  0  0  0
 10  1  1  0  0  0
  9  5  1  0  0  0
 18 13  1  0  0  0
  4 11  1  0  0  0
  4 12  1  0  0  0
 20 22  1  0  0  0
 20 23  1  0  0  0
M  END
> <minimizedAffinity>
-7.98311

> <CNNscore>
0.4782594442

> <CNNaffinity>
6.7319517136

> <CNN_VS>
3.2196195126

> <CNNaffinity_variance>
0.0495197475

$$$$
[H]c1c([H])c(C(=O)N([H])[H])c([H])c(-n2c([H])nc3c(N([H])[H])nc(N4C([H])([H])C([H])([H])C([H])([H])C4([H])C([H])(C([H])([H])[H])C([H])([H])[H])nc32)c1[H]


 31 34  0  0  0  0  0  0  0  0999 V2000
   56.4675   -5.9254   -5.8552 C   0  0  0  0  0  0  0  0  0  0  0  0
   57.4914   -5.7216   -6.6807 N   0  0  0  0  0  0  0  0  0  0  0  0
   57.3950   -5.2264   -7.9265 C   0  0  0  0  0  0  0  0  0  0  0  0
   58.5182   -5.0278   -8.7677 N   0  0  0  0  0  0  0  0  0  0  0  0
   56.1502   -4.9011   -8.3980 C   0  0  0  0  0  0  0  0  0  0  0  0
   55.6394   -4.4015   -9.5334 N   0  0  0  0  0  0  0  0  0  0  0  0
   54.3123   -4.2856   -9.4415 C   0  0  0  0  0  0  0  0  0  0  0  0
   53.9638   -4.7221   -8.2159 N   0  0  0  0  0  0  0  0  0  0  0  0
   55.0828   -5.1104   -7.5455 C   0  0  0  0  0  0  0  0  0  0  0  0
   55.2355   -5.6093   -6.3066 N   0  0  0  0  0  0  0  0  0  0  0  0
   58.4089   -5.1359   -9.8061 H   0  0  0  0  0  0  0  0  0  0  0  0
   59.4370   -4.7771   -8.3437 H   0  0  0  0  0  0  0  0  0  0  0  0
   52.6503   -4.7893   -7.6569 C   0  0  0  0  0  0  0  0  0  0  0  0
   52.0992   -5.9966   -7.2796 C   0  0  0  0  0  0  0  0  0  0  0  0
   50.8260   -6.0373   -6.7407 C   0  0  0  0  0  0  0  0  0  0  0  0
   50.0555   -4.9094   -6.5541 C   0  0  0  0  0  0  0  0  0  0  0  0
   50.6074   -3.6895   -6.9334 C   0  0  0  0  0  0  0  0  0  0  0  0
   51.8779   -3.6623   -7.4695 C   0  0  0  0  0  0  0  0  0  0  0  0
   49.8364   -2.4633   -6.7585 C   0  0  0  0  0  0  0  0  0  0  0  0
   49.9969   -1.3751   -7.6322 N   0  0  0  0  0  0  0  0  0  0  0  0
   49.0198   -2.3973   -5.8050 O   0  0  0  0  0  0  0  0  0  0  0  0
   50.2690   -1.4609   -8.6311 H   0  0  0  0  0  0  0  0  0  0  0  0
   49.8393   -0.3967   -7.2858 H   0  0  0  0  0  0  0  0  0  0  0  0
   55.7061   -6.2027   -3.4463 C   0  0  0  0  0  0  0  0  0  0  0  0
   56.4600   -6.6024   -2.2326 C   0  0  0  0  0  0  0  0  0  0  0  0
   57.3629   -7.6953   -2.6846 C   0  0  0  0  0  0  0  0  0  0  0  0
   57.7100   -7.2997   -4.1016 C   0  0  0  0  0  0  0  0  0  0  0  0
   56.6316   -6.4592   -4.5299 N   0  0  0  0  0  0  0  0  0  0  0  0
   54.0977   -7.9745   -2.6597 C   0  0  0  0  0  0  0  0  0  0  0  0
   54.4164   -6.9240   -3.6680 C   0  0  0  0  0  0  0  0  0  0  0  0
   53.2475   -5.9513   -3.7539 C   0  0  0  0  0  0  0  0  0  0  0  0
 29 30  1  0  0  0
 30 31  1  0  0  0
 30 24  1  0  0  0
 24 25  1  0  0  0
 25 26  1  0  0  0
 26 27  1  0  0  0
 27 28  1  0  0  0
 28  1  1  0  0  0
  1  2  2  0  0  0
  2  3  1  0  0  0
  3  4  1  0  0  0
  3  5  2  0  0  0
  5  6  1  0  0  0
  6  7  2  0  0  0
  7  8  1  0  0  0
  8 13  1  0  0  0
 13 14  2  0  0  0
 14 15  1  0  0  0
 15 16  2  0  0  0
 16 17  1  0  0  0
 17 18  2  0  0  0
 17 19  1  0  0  0
 19 20  1  0  0  0
 19 21  2  0  0  0
  8  9  1  0  0  0
  9 10  2  0  0  0
 28 24  1  0  0  0
 10  1  1  0  0  0
  9  5  1  0  0  0
 18 13  1  0  0  0
  4 11  1  0  0  0
  4 12  1  0  0  0
 20 22  1  0  0  0
 20 23  1  0  0  0
M  END
> <minimizedAffinity>
-8.97440

> <CNNscore>
0.4473918378

> <CNNaffinity>
6.8301324844

> <CNN_VS>
3.0557456017

> <CNNaffinity_variance>
0.0618362650

$$$$
[H]c1c([H])c(C(=O)N([H])[H])c([H])c(-n2c([H])nc3c(N([H])[H])nc(N4C([H])([H])C([H])([H])C([H])([H])C4([H])C([H])(C([H])([H])[H])C([H])([H])[H])nc32)c1[H]


 31 34  0  0  0  0  0  0  0  0999 V2000
   55.4432   -5.7251   -6.3732 C   0  0  0  0  0  0  0  0  0  0  0  0
   56.3363   -5.6030   -7.3526 N   0  0  0  0  0  0  0  0  0  0  0  0
   56.1515   -4.9053   -8.4864 C   0  0  0  0  0  0  0  0  0  0  0  0
   57.1360   -4.8058   -9.5010 N   0  0  0  0  0  0  0  0  0  0  0  0
   54.9538   -4.2634   -8.6622 C   0  0  0  0  0  0  0  0  0  0  0  0
   54.3906   -3.4952   -9.6069 N   0  0  0  0  0  0  0  0  0  0  0  0
   53.1588   -3.1294   -9.2437 C   0  0  0  0  0  0  0  0  0  0  0  0
   52.9267   -3.6772   -8.0353 N   0  0  0  0  0  0  0  0  0  0  0  0
   54.0222   -4.3864   -7.6489 C   0  0  0  0  0  0  0  0  0  0  0  0
   54.2590   -5.0980   -6.5332 N   0  0  0  0  0  0  0  0  0  0  0  0
   56.8354   -4.7216  -10.5032 H   0  0  0  0  0  0  0  0  0  0  0  0
   58.1448   -4.8175   -9.2381 H   0  0  0  0  0  0  0  0  0  0  0  0
   51.7431   -3.5660   -7.2422 C   0  0  0  0  0  0  0  0  0  0  0  0
   50.7859   -2.6129   -7.5232 C   0  0  0  0  0  0  0  0  0  0  0  0
   49.6482   -2.5239   -6.7417 C   0  0  0  0  0  0  0  0  0  0  0  0
   49.4099   -3.3563   -5.6688 C   0  0  0  0  0  0  0  0  0  0  0  0
   50.3727   -4.3190   -5.3817 C   0  0  0  0  0  0  0  0  0  0  0  0
   51.5028   -4.3975   -6.1685 C   0  0  0  0  0  0  0  0  0  0  0  0
   50.1723   -5.2269   -4.2572 C   0  0  0  0  0  0  0  0  0  0  0  0
   51.1013   -6.2404   -3.9692 N   0  0  0  0  0  0  0  0  0  0  0  0
   49.1460   -5.0850   -3.5454 O   0  0  0  0  0  0  0  0  0  0  0  0
   52.1180   -6.1788   -4.1738 H   0  0  0  0  0  0  0  0  0  0  0  0
   50.7812   -7.1324   -3.5175 H   0  0  0  0  0  0  0  0  0  0  0  0
   56.5879   -6.0460   -4.1269 C   0  0  0  0  0  0  0  0  0  0  0  0
   56.8358   -7.2749   -3.3334 C   0  0  0  0  0  0  0  0  0  0  0  0
   55.5896   -8.0765   -3.4687 C   0  0  0  0  0  0  0  0  0  0  0  0
   55.1204   -7.7612   -4.8706 C   0  0  0  0  0  0  0  0  0  0  0  0
   55.6972   -6.4866   -5.1800 N   0  0  0  0  0  0  0  0  0  0  0  0
   54.6238   -5.1456   -2.8322 C   0  0  0  0  0  0  0  0  0  0  0  0
   55.9920   -4.9029   -3.3714 C   0  0  0  0  0  0  0  0  0  0  0  0
   56.9006   -4.4607   -2.2318 C   0  0  0  0  0  0  0  0  0  0  0  0
 29 30  1  0  0  0
 30 31  1  0  0  0
 30 24  1  0  0  0
 24 25  1  0  0  0
 25 26  1  0  0  0
 26 27  1  0  0  0
 27 28  1  0  0  0
 28  1  1  0  0  0
  1  2  2  0  0  0
  2  3  1  0  0  0
  3  4  1  0  0  0
  3  5  2  0  0  0
  5  6  1  0  0  0
  6  7  2  0  0  0
  7  8  1  0  0  0
  8 13  1  0  0  0
 13 14  2  0  0  0
 14 15  1  0  0  0
 15 16  2  0  0  0
 16 17  1  0  0  0
 17 18  2  0  0  0
 17 19  1  0  0  0
 19 20  1  0  0  0
 19 21  2  0  0  0
  8  9  1  0  0  0
  9 10  2  0  0  0
 28 24  1  0  0  0
 10  1  1  0  0  0
  9  5  1  0  0  0
 18 13  1  0  0  0
  4 11  1  0  0  0
  4 12  1  0  0  0
 20 22  1  0  0  0
 20 23  1  0  0  0
M  END
> <minimizedAffinity>
-10.15798

> <CNNscore>
0.4191229641

> <CNNaffinity>
6.8655776978

> <CNN_VS>
2.8775212765

> <CNNaffinity_variance>
0.1054581255

$$$$
[H]c1c([H])c(C(=O)N([H])[H])c([H])c(-n2c([H])nc3c(N([H])[H])nc(N4C([H])([H])C([H])([H])C([H])([H])C4([H])C([H])(C([H])([H])[H])C([H])([H])[H])nc32)c1[H]


 31 34  0  0  0  0  0  0  0  0999 V2000
   52.6755   -4.4486   -6.5464 C   0  0  0  0  0  0  0  0  0  0  0  0
   51.7256   -3.7861   -7.2023 N   0  0  0  0  0  0  0  0  0  0  0  0
   50.4736   -3.5847   -6.7569 C   0  0  0  0  0  0  0  0  0  0  0  0
   49.4968   -2.8707   -7.4950 N   0  0  0  0  0  0  0  0  0  0  0  0
   50.1334   -4.0961   -5.5321 C   0  0  0  0  0  0  0  0  0  0  0  0
   49.0391   -4.1182   -4.7563 N   0  0  0  0  0  0  0  0  0  0  0  0
   49.2790   -4.7819   -3.6227 C   0  0  0  0  0  0  0  0  0  0  0  0
   50.5597   -5.1957   -3.6734 N   0  0  0  0  0  0  0  0  0  0  0  0
   51.1154   -4.7851   -4.8460 C   0  0  0  0  0  0  0  0  0  0  0  0
   52.3543   -4.9578   -5.3386 N   0  0  0  0  0  0  0  0  0  0  0  0
   48.4862   -3.1402   -7.4062 H   0  0  0  0  0  0  0  0  0  0  0  0
   49.7955   -2.0881   -8.1157 H   0  0  0  0  0  0  0  0  0  0  0  0
   51.2715   -5.9459   -2.6871 C   0  0  0  0  0  0  0  0  0  0  0  0
   52.3053   -5.3782   -1.9712 C   0  0  0  0  0  0  0  0  0  0  0  0
   52.9800   -6.1238   -1.0214 C   0  0  0  0  0  0  0  0  0  0  0  0
   52.6696   -7.4376   -0.7419 C   0  0  0  0  0  0  0  0  0  0  0  0
   51.6276   -8.0143   -1.4617 C   0  0  0  0  0  0  0  0  0  0  0  0
   50.9627   -7.2603   -2.4060 C   0  0  0  0  0  0  0  0  0  0  0  0
   51.2563   -9.4021   -1.2070 C   0  0  0  0  0  0  0  0  0  0  0  0
   52.1878  -10.4421   -1.3621 N   0  0  0  0  0  0  0  0  0  0  0  0
   50.0793   -9.6527   -0.8437 O   0  0  0  0  0  0  0  0  0  0  0  0
   53.2117  -10.3374   -1.2213 H   0  0  0  0  0  0  0  0  0  0  0  0
   51.8621  -11.4012   -1.6378 H   0  0  0  0  0  0  0  0  0  0  0  0
   55.2010   -4.5250   -6.2716 C   0  0  0  0  0  0  0  0  0  0  0  0
   56.2881   -4.3978   -7.2732 C   0  0  0  0  0  0  0  0  0  0  0  0
   55.8105   -5.1627   -8.4567 C   0  0  0  0  0  0  0  0  0  0  0  0
   54.3154   -4.9405   -8.4376 C   0  0  0  0  0  0  0  0  0  0  0  0
   54.0006   -4.6330   -7.0740 N   0  0  0  0  0  0  0  0  0  0  0  0
   56.4440   -6.6199   -5.6303 C   0  0  0  0  0  0  0  0  0  0  0  0
   55.3208   -5.6849   -5.3373 C   0  0  0  0  0  0  0  0  0  0  0  0
   55.4301   -5.2199   -3.8910 C   0  0  0  0  0  0  0  0  0  0  0  0
 29 30  1  0  0  0
 30 31  1  0  0  0
 30 24  1  0  0  0
 24 25  1  0  0  0
 25 26  1  0  0  0
 26 27  1  0  0  0
 27 28  1  0  0  0
 28  1  1  0  0  0
  1  2  2  0  0  0
  2  3  1  0  0  0
  3  4  1  0  0  0
  3  5  2  0  0  0
  5  6  1  0  0  0
  6  7  2  0  0  0
  7  8  1  0  0  0
  8 13  1  0  0  0
 13 14  2  0  0  0
 14 15  1  0  0  0
 15 16  2  0  0  0
 16 17  1  0  0  0
 17 18  2  0  0  0
 17 19  1  0  0  0
 19 20  1  0  0  0
 19 21  2  0  0  0
  8  9  1  0  0  0
  9 10  2  0  0  0
 28 24  1  0  0  0
 10  1  1  0  0  0
  9  5  1  0  0  0
 18 13  1  0  0  0
  4 11  1  0  0  0
  4 12  1  0  0  0
 20 22  1  0  0  0
 20 23  1  0  0  0
M  END
> <minimizedAffinity>
-7.83381

> <CNNscore>
0.3772695065

> <CNNaffinity>
6.8990378380

> <CNN_VS>
2.6027965546

> <CNNaffinity_variance>
0.2007782459

$$$$
[H]OC(=O)c1c([H])c(C(=O)N2C([H])([H])C([H])([H])N(S(=O)(=O)c3c([H])c([H])c(OC([H])([H])[H])c([H])c3[H])C([H])([H])C2([H])[H])c([H])c(C(F)(F)F)c1[H]


 33 35  0  0  0  0  0  0  0  0999 V2000
   54.6689   -4.6185   -7.6435 N   0  0  0  0  0  0  0  0  0  0  0  0
   53.9372   -3.6176   -8.2524 C   0  0  0  0  0  0  0  0  0  0  0  0
   52.5068   -4.1351   -8.5399 C   0  0  0  0  0  0  0  0  0  0  0  0
   51.9811   -4.4776   -7.2429 N   0  0  0  0  0  0  0  0  0  0  0  0
   52.6525   -5.5904   -6.5795 C   0  0  0  0  0  0  0  0  0  0  0  0
   54.0131   -5.8081   -7.1996 C   0  0  0  0  0  0  0  0  0  0  0  0
   50.9528   -3.6968   -6.6848 C   0  0  0  0  0  0  0  0  0  0  0  0
   50.5145   -2.6783   -7.3218 O   0  0  0  0  0  0  0  0  0  0  0  0
   50.3381   -3.9657   -5.3651 C   0  0  0  0  0  0  0  0  0  0  0  0
   49.0536   -3.6065   -5.0317 C   0  0  0  0  0  0  0  0  0  0  0  0
   48.3776   -4.0287   -3.8946 C   0  0  0  0  0  0  0  0  0  0  0  0
   49.0606   -4.8611   -3.0516 C   0  0  0  0  0  0  0  0  0  0  0  0
   50.3670   -5.2607   -3.3234 C   0  0  0  0  0  0  0  0  0  0  0  0
   50.9906   -4.8105   -4.4695 C   0  0  0  0  0  0  0  0  0  0  0  0
   51.0714   -6.1891   -2.4229 C   0  0  0  0  0  0  0  0  0  0  0  0
   50.1965   -6.8901   -1.6250 F   0  0  0  0  0  0  0  0  0  0  0  0
   51.9808   -5.5250   -1.6154 F   0  0  0  0  0  0  0  0  0  0  0  0
   51.7482   -7.1166   -3.2047 F   0  0  0  0  0  0  0  0  0  0  0  0
   47.0152   -3.5799   -3.7051 C   0  0  0  0  0  0  0  0  0  0  0  0
   46.1151   -4.4250   -3.0522 O   0  0  0  0  0  0  0  0  0  0  0  0
   46.6465   -2.4794   -4.1103 O   0  0  0  0  0  0  0  0  0  0  0  0
   45.6646   -5.2210   -3.5437 H   0  0  0  0  0  0  0  0  0  0  0  0
   56.3202   -4.6811   -7.6159 S   0  0  0  0  0  0  0  0  0  0  0  0
   56.9640   -3.5464   -6.8336 O   0  0  0  0  0  0  0  0  0  0  0  0
   56.7477   -5.9877   -6.9205 O   0  0  0  0  0  0  0  0  0  0  0  0
   58.0769   -4.4512  -11.8111 C   0  0  0  0  0  0  0  0  0  0  0  0
   56.8427   -3.8640  -11.5095 C   0  0  0  0  0  0  0  0  0  0  0  0
   56.3536   -3.9717  -10.2424 C   0  0  0  0  0  0  0  0  0  0  0  0
   57.0230   -4.6435   -9.2099 C   0  0  0  0  0  0  0  0  0  0  0  0
   58.2198   -5.1963   -9.5640 C   0  0  0  0  0  0  0  0  0  0  0  0
   58.7790   -5.1266  -10.8368 C   0  0  0  0  0  0  0  0  0  0  0  0
   59.7733   -3.6480  -13.3968 C   0  0  0  0  0  0  0  0  0  0  0  0
   58.6288   -4.3745  -13.0783 O   0  0  0  0  0  0  0  0  0  0  0  0
 32 33  1  0  0  0
 33 26  1  0  0  0
 26 27  2  0  0  0
 27 28  1  0  0  0
 28 29  2  0  0  0
 29 30  1  0  0  0
 30 31  2  0  0  0
 29 23  1  0  0  0
 23 24  2  0  0  0
 23 25  2  0  0  0
 23  1  1  0  0  0
  1  2  1  0  0  0
  2  3  1  0  0  0
  3  4  1  0  0  0
  4  5  1  0  0  0
  5  6  1  0  0  0
  4  7  1  0  0  0
  7  8  2  0  0  0
  7  9  1  0  0  0
  9 10  2  0  0  0
 10 11  1  0  0  0
 11 12  2  0  0  0
 12 13  1  0  0  0
 13 14  2  0  0  0
 13 15  1  0  0  0
 15 16  1  0  0  0
 15 17  1  0  0  0
 15 18  1  0  0  0
 11 19  1  0  0  0
 19 20  1  0  0  0
 19 21  2  0  0  0
 31 26  1  0  0  0
  6  1  1  0  0  0
 14  9  1  0  0  0
 20 22  1  0  0  0
M  END
> <minimizedAffinity>
-9.74007

> <CNNscore>
0.3645507097

> <CNNaffinity>
6.4676871300

> <CNN_VS>
2.3578000069

> <CNNaffinity_variance>
0.1528387964

$$$$
[H]OC(=O)c1c([H])c(C(=O)N2C([H])([H])C([H])([H])N(S(=O)(=O)c3c([H])c([H])c(OC([H])([H])[H])c([H])c3[H])C([H])([H])C2([H])[H])c([H])c(C(F)(F)F)c1[H]


 33 35  0  0  0  0  0  0  0  0999 V2000
   52.9744   -4.8119   -6.6153 N   0  0  0  0  0  0  0  0  0  0  0  0
   52.2431   -4.2513   -7.6442 C   0  0  0  0  0  0  0  0  0  0  0  0
   53.0100   -3.0306   -8.2082 C   0  0  0  0  0  0  0  0  0  0  0  0
   54.2626   -3.5743   -8.6679 N   0  0  0  0  0  0  0  0  0  0  0  0
   55.1273   -4.1039   -7.6185 C   0  0  0  0  0  0  0  0  0  0  0  0
   54.3131   -4.3735   -6.3745 C   0  0  0  0  0  0  0  0  0  0  0  0
   54.5257   -3.6349  -10.0483 C   0  0  0  0  0  0  0  0  0  0  0  0
   53.6416   -3.2316  -10.8796 O   0  0  0  0  0  0  0  0  0  0  0  0
   55.7812   -4.1667  -10.6251 C   0  0  0  0  0  0  0  0  0  0  0  0
   56.2323   -3.8628  -11.8877 C   0  0  0  0  0  0  0  0  0  0  0  0
   57.4964   -4.1649  -12.3766 C   0  0  0  0  0  0  0  0  0  0  0  0
   58.3412   -4.8194  -11.5233 C   0  0  0  0  0  0  0  0  0  0  0  0
   57.9485   -5.1642  -10.2321 C   0  0  0  0  0  0  0  0  0  0  0  0
   56.6793   -4.8385   -9.7982 C   0  0  0  0  0  0  0  0  0  0  0  0
   58.8865   -5.8339   -9.3153 C   0  0  0  0  0  0  0  0  0  0  0  0
   60.0763   -5.1505   -9.2120 F   0  0  0  0  0  0  0  0  0  0  0  0
   59.1496   -7.1343   -9.7150 F   0  0  0  0  0  0  0  0  0  0  0  0
   58.3123   -5.8531   -8.0505 F   0  0  0  0  0  0  0  0  0  0  0  0
   57.8243   -3.7489  -13.7231 C   0  0  0  0  0  0  0  0  0  0  0  0
   59.1518   -3.4373  -14.0246 O   0  0  0  0  0  0  0  0  0  0  0  0
   56.9576   -3.6650  -14.5910 O   0  0  0  0  0  0  0  0  0  0  0  0
   59.5671   -2.5225  -13.7623 H   0  0  0  0  0  0  0  0  0  0  0  0
   52.3369   -5.7831   -5.4398 S   0  0  0  0  0  0  0  0  0  0  0  0
   51.3230   -5.0823   -4.5482 O   0  0  0  0  0  0  0  0  0  0  0  0
   51.5895   -6.9462   -6.1196 O   0  0  0  0  0  0  0  0  0  0  0  0
   55.4182   -7.4840   -2.5499 C   0  0  0  0  0  0  0  0  0  0  0  0
   54.4881   -6.5241   -2.1346 C   0  0  0  0  0  0  0  0  0  0  0  0
   53.5950   -6.0365   -3.0405 C   0  0  0  0  0  0  0  0  0  0  0  0
   53.5516   -6.4457   -4.3807 C   0  0  0  0  0  0  0  0  0  0  0  0
   54.4830   -7.3818   -4.7270 C   0  0  0  0  0  0  0  0  0  0  0  0
   55.4246   -7.9224   -3.8561 C   0  0  0  0  0  0  0  0  0  0  0  0
   57.3985   -8.8528   -2.0580 C   0  0  0  0  0  0  0  0  0  0  0  0
   56.3494   -8.0201   -1.6771 O   0  0  0  0  0  0  0  0  0  0  0  0
 32 33  1  0  0  0
 33 26  1  0  0  0
 26 27  2  0  0  0
 27 28  1  0  0  0
 28 29  2  0  0  0
 29 30  1  0  0  0
 30 31  2  0  0  0
 29 23  1  0  0  0
 23 24  2  0  0  0
 23 25  2  0  0  0
 23  1  1  0  0  0
  1  2  1  0  0  0
  2  3  1  0  0  0
  3  4  1  0  0  0
  4  5  1  0  0  0
  5  6  1  0  0  0
  4  7  1  0  0  0
  7  8  2  0  0  0
  7  9  1  0  0  0
  9 10  2  0  0  0
 10 11  1  0  0  0
 11 12  2  0  0  0
 12 13  1  0  0  0
 13 14  2  0  0  0
 13 15  1  0  0  0
 15 16  1  0  0  0
 15 17  1  0  0  0
 15 18  1  0  0  0
 11 19  1  0  0  0
 19 20  1  0  0  0
 19 21  2  0  0  0
 31 26  1  0  0  0
  6  1  1  0  0  0
 14  9  1  0  0  0
 20 22  1  0  0  0
M  END
> <minimizedAffinity>
-7.23881

> <CNNscore>
0.3628632426

> <CNNaffinity>
6.2184095383

> <CNN_VS>
2.2564322948

> <CNNaffinity_variance>
0.2195902765

$$$$
[H]OC(=O)c1c([H])c(C(=O)N2C([H])([H])C([H])([H])N(S(=O)(=O)c3c([H])c([H])c(OC([H])([H])[H])c([H])c3[H])C([H])([H])C2([H])[H])c([H])c(C(F)(F)F)c1[H]


 33 35  0  0  0  0  0  0  0  0999 V2000
   57.1799   -5.3426   -7.4029 N   0  0  0  0  0  0  0  0  0  0  0  0
   56.7788   -6.4819   -6.7328 C   0  0  0  0  0  0  0  0  0  0  0  0
   56.1134   -6.0783   -5.3946 C   0  0  0  0  0  0  0  0  0  0  0  0
   54.9953   -5.2566   -5.7828 N   0  0  0  0  0  0  0  0  0  0  0  0
   55.3505   -3.9916   -6.4176 C   0  0  0  0  0  0  0  0  0  0  0  0
   56.7712   -4.0583   -6.9279 C   0  0  0  0  0  0  0  0  0  0  0  0
   53.6866   -5.7423   -5.6098 C   0  0  0  0  0  0  0  0  0  0  0  0
   53.5043   -6.9156   -5.1350 O   0  0  0  0  0  0  0  0  0  0  0  0
   52.4702   -4.9780   -5.9677 C   0  0  0  0  0  0  0  0  0  0  0  0
   51.3544   -4.8972   -5.1687 C   0  0  0  0  0  0  0  0  0  0  0  0
   50.2926   -4.0249   -5.3683 C   0  0  0  0  0  0  0  0  0  0  0  0
   50.3798   -3.1940   -6.4509 C   0  0  0  0  0  0  0  0  0  0  0  0
   51.4783   -3.2259   -7.3068 C   0  0  0  0  0  0  0  0  0  0  0  0
   52.5062   -4.1136   -7.0600 C   0  0  0  0  0  0  0  0  0  0  0  0
   51.5715   -2.2956   -8.4446 C   0  0  0  0  0  0  0  0  0  0  0  0
   51.1154   -2.8666   -9.6105 F   0  0  0  0  0  0  0  0  0  0  0  0
   52.8711   -1.8561   -8.6391 F   0  0  0  0  0  0  0  0  0  0  0  0
   50.7564   -1.2035   -8.1754 F   0  0  0  0  0  0  0  0  0  0  0  0
   49.2035   -4.0469   -4.4160 C   0  0  0  0  0  0  0  0  0  0  0  0
   49.0993   -5.1303   -3.5408 O   0  0  0  0  0  0  0  0  0  0  0  0
   48.3789   -3.1362   -4.3725 O   0  0  0  0  0  0  0  0  0  0  0  0
   48.6997   -6.0384   -3.8472 H   0  0  0  0  0  0  0  0  0  0  0  0
   58.3362   -5.3137   -8.5834 S   0  0  0  0  0  0  0  0  0  0  0  0
   59.4876   -4.3635   -8.2910 O   0  0  0  0  0  0  0  0  0  0  0  0
   58.9512   -6.7215   -8.6991 O   0  0  0  0  0  0  0  0  0  0  0  0
   56.5632   -4.0299  -12.5768 C   0  0  0  0  0  0  0  0  0  0  0  0
   55.7820   -4.0673  -11.4160 C   0  0  0  0  0  0  0  0  0  0  0  0
   56.3558   -4.4711  -10.2481 C   0  0  0  0  0  0  0  0  0  0  0  0
   57.6998   -4.8549  -10.1393 C   0  0  0  0  0  0  0  0  0  0  0  0
   58.4103   -4.7993  -11.3035 C   0  0  0  0  0  0  0  0  0  0  0  0
   57.8900   -4.3984  -12.5308 C   0  0  0  0  0  0  0  0  0  0  0  0
   56.8002   -3.3626  -14.9296 C   0  0  0  0  0  0  0  0  0  0  0  0
   56.0399   -3.6263  -13.7931 O   0  0  0  0  0  0  0  0  0  0  0  0
 32 33  1  0  0  0
 33 26  1  0  0  0
 26 27  2  0  0  0
 27 28  1  0  0  0
 28 29  2  0  0  0
 29 30  1  0  0  0
 30 31  2  0  0  0
 29 23  1  0  0  0
 23 24  2  0  0  0
 23 25  2  0  0  0
 23  1  1  0  0  0
  1  2  1  0  0  0
  2  3  1  0  0  0
  3  4  1  0  0  0
  4  5  1  0  0  0
  5  6  1  0  0  0
  4  7  1  0  0  0
  7  8  2  0  0  0
  7  9  1  0  0  0
  9 10  2  0  0  0
 10 11  1  0  0  0
 11 12  2  0  0  0
 12 13  1  0  0  0
 13 14  2  0  0  0
 13 15  1  0  0  0
 15 16  1  0  0  0
 15 17  1  0  0  0
 15 18  1  0  0  0
 11 19  1  0  0  0
 19 20  1  0  0  0
 19 21  2  0  0  0
 31 26  1  0  0  0
  6  1  1  0  0  0
 14  9  1  0  0  0
 20 22  1  0  0  0
M  END
> <minimizedAffinity>
-6.01247

> <CNNscore>
0.3499624133

> <CNNaffinity>
6.3212518692

> <CNN_VS>
2.2122006416

> <CNNaffinity_variance>
0.3647246361

$$$$
[H]OC(=O)c1c([H])c(C(=O)N2C([H])([H])C([H])([H])N(S(=O)(=O)c3c([H])c([H])c(OC([H])([H])[H])c([H])c3[H])C([H])([H])C2([H])[H])c([H])c(C(F)(F)F)c1[H]


 33 35  0  0  0  0  0  0  0  0999 V2000
   52.2033   -3.8875   -7.7084 N   0  0  0  0  0  0  0  0  0  0  0  0
   51.0993   -3.2225   -7.2116 C   0  0  0  0  0  0  0  0  0  0  0  0
   50.0981   -4.2546   -6.6384 C   0  0  0  0  0  0  0  0  0  0  0  0
   50.8343   -4.9317   -5.6013 N   0  0  0  0  0  0  0  0  0  0  0  0
   51.9641   -5.7291   -6.0671 C   0  0  0  0  0  0  0  0  0  0  0  0
   52.3646   -5.2845   -7.4545 C   0  0  0  0  0  0  0  0  0  0  0  0
   50.4844   -4.7227   -4.2551 C   0  0  0  0  0  0  0  0  0  0  0  0
   49.5356   -3.9157   -3.9655 O   0  0  0  0  0  0  0  0  0  0  0  0
   51.1695   -5.3734   -3.1153 C   0  0  0  0  0  0  0  0  0  0  0  0
   50.6219   -6.3941   -2.3748 C   0  0  0  0  0  0  0  0  0  0  0  0
   51.3116   -7.1660   -1.4491 C   0  0  0  0  0  0  0  0  0  0  0  0
   52.6346   -6.8694   -1.2710 C   0  0  0  0  0  0  0  0  0  0  0  0
   53.2533   -5.8442   -1.9826 C   0  0  0  0  0  0  0  0  0  0  0  0
   52.5191   -5.1088   -2.8911 C   0  0  0  0  0  0  0  0  0  0  0  0
   54.6886   -5.5664   -1.8050 C   0  0  0  0  0  0  0  0  0  0  0  0
   55.4433   -6.7151   -1.8678 F   0  0  0  0  0  0  0  0  0  0  0  0
   54.9396   -4.9303   -0.5999 F   0  0  0  0  0  0  0  0  0  0  0  0
   55.1005   -4.7463   -2.8478 F   0  0  0  0  0  0  0  0  0  0  0  0
   50.5926   -8.2236   -0.7723 C   0  0  0  0  0  0  0  0  0  0  0  0
   51.1917   -9.4806   -0.6657 O   0  0  0  0  0  0  0  0  0  0  0  0
   49.4742   -8.0303   -0.2999 O   0  0  0  0  0  0  0  0  0  0  0  0
   51.1972  -10.1479   -1.4612 H   0  0  0  0  0  0  0  0  0  0  0  0
   53.2499   -3.2557   -8.8206 S   0  0  0  0  0  0  0  0  0  0  0  0
   52.8535   -3.5335  -10.2628 O   0  0  0  0  0  0  0  0  0  0  0  0
   53.2663   -1.7235   -8.6603 O   0  0  0  0  0  0  0  0  0  0  0  0
   57.5286   -4.7760   -8.4747 C   0  0  0  0  0  0  0  0  0  0  0  0
   56.8749   -4.7275   -9.7114 C   0  0  0  0  0  0  0  0  0  0  0  0
   55.5901   -4.2768   -9.7606 C   0  0  0  0  0  0  0  0  0  0  0  0
   54.8760   -3.8525   -8.6313 C   0  0  0  0  0  0  0  0  0  0  0  0
   55.5643   -3.9239   -7.4546 C   0  0  0  0  0  0  0  0  0  0  0  0
   56.8756   -4.3739   -7.3300 C   0  0  0  0  0  0  0  0  0  0  0  0
   59.5304   -5.8906   -9.3620 C   0  0  0  0  0  0  0  0  0  0  0  0
   58.8342   -5.2212   -8.3589 O   0  0  0  0  0  0  0  0  0  0  0  0
 32 33  1  0  0  0
 33 26  1  0  0  0
 26 27  2  0  0  0
 27 28  1  0  0  0
 28 29  2  0  0  0
 29 30  1  0  0  0
 30 31  2  0  0  0
 29 23  1  0  0  0
 23 24  2  0  0  0
 23 25  2  0  0  0
 23  1  1  0  0  0
  1  2  1  0  0  0
  2  3  1  0  0  0
  3  4  1  0  0  0
  4  5  1  0  0  0
  5  6  1  0  0  0
  4  7  1  0  0  0
  7  8  2  0  0  0
  7  9  1  0  0  0
  9 10  2  0  0  0
 10 11  1  0  0  0
 11 12  2  0  0  0
 12 13  1  0  0  0
 13 14  2  0  0  0
 13 15  1  0  0  0
 15 16  1  0  0  0
 15 17  1  0  0  0
 15 18  1  0  0  0
 11 19  1  0  0  0
 19 20  1  0  0  0
 19 21  2  0  0  0
 31 26  1  0  0  0
  6  1  1  0  0  0
 14  9  1  0  0  0
 20 22  1  0  0  0
M  END
> <minimizedAffinity>
-9.81040

> <CNNscore>
0.3274990916

> <CNNaffinity>
6.5169472694

> <CNN_VS>
2.1342942715

> <CNNaffinity_variance>
0.2394964248

$$$$
[H]OC(=O)c1c([H])c(C(=O)N2C([H])([H])C([H])([H])N(S(=O)(=O)c3c([H])c([H])c(OC([H])([H])[H])c([H])c3[H])C([H])([H])C2([H])[H])c([H])c(C(F)(F)F)c1[H]


 33 35  0  0  0  0  0  0  0  0999 V2000
   56.2100   -4.7585   -8.5308 N   0  0  0  0  0  0  0  0  0  0  0  0
   56.2246   -5.9639   -7.8566 C   0  0  0  0  0  0  0  0  0  0  0  0
   55.9577   -5.7100   -6.3530 C   0  0  0  0  0  0  0  0  0  0  0  0
   54.6593   -5.0862   -6.3189 N   0  0  0  0  0  0  0  0  0  0  0  0
   54.5932   -3.7656   -6.9362 C   0  0  0  0  0  0  0  0  0  0  0  0
   55.7737   -3.5746   -7.8597 C   0  0  0  0  0  0  0  0  0  0  0  0
   53.5649   -5.7946   -5.7908 C   0  0  0  0  0  0  0  0  0  0  0  0
   53.7284   -6.9915   -5.3713 O   0  0  0  0  0  0  0  0  0  0  0  0
   52.1932   -5.2449   -5.7021 C   0  0  0  0  0  0  0  0  0  0  0  0
   51.3574   -5.4424   -4.6285 C   0  0  0  0  0  0  0  0  0  0  0  0
   50.1604   -4.7713   -4.4161 C   0  0  0  0  0  0  0  0  0  0  0  0
   49.8001   -3.8508   -5.3611 C   0  0  0  0  0  0  0  0  0  0  0  0
   50.5955   -3.6039   -6.4777 C   0  0  0  0  0  0  0  0  0  0  0  0
   51.7764   -4.3004   -6.6380 C   0  0  0  0  0  0  0  0  0  0  0  0
   50.2093   -2.5805   -7.4637 C   0  0  0  0  0  0  0  0  0  0  0  0
   51.2509   -2.2615   -8.3043 F   0  0  0  0  0  0  0  0  0  0  0  0
   49.7593   -1.4234   -6.8483 F   0  0  0  0  0  0  0  0  0  0  0  0
   49.1912   -3.1037   -8.2508 F   0  0  0  0  0  0  0  0  0  0  0  0
   49.4104   -5.0773   -3.2173 C   0  0  0  0  0  0  0  0  0  0  0  0
   50.0033   -5.8820   -2.2419 O   0  0  0  0  0  0  0  0  0  0  0  0
   48.2714   -4.6449   -3.0527 O   0  0  0  0  0  0  0  0  0  0  0  0
   50.0453   -6.9145   -2.3429 H   0  0  0  0  0  0  0  0  0  0  0  0
   56.9177   -4.5048  -10.0026 S   0  0  0  0  0  0  0  0  0  0  0  0
   56.1384   -5.0956  -11.1679 O   0  0  0  0  0  0  0  0  0  0  0  0
   56.9926   -2.9866  -10.2532 O   0  0  0  0  0  0  0  0  0  0  0  0
   61.1588   -6.1235  -10.3654 C   0  0  0  0  0  0  0  0  0  0  0  0
   60.5441   -5.4573  -11.4319 C   0  0  0  0  0  0  0  0  0  0  0  0
   59.2689   -5.0030  -11.2781 C   0  0  0  0  0  0  0  0  0  0  0  0
   58.5274   -5.1649  -10.0993 C   0  0  0  0  0  0  0  0  0  0  0  0
   59.1782   -5.8228   -9.0958 C   0  0  0  0  0  0  0  0  0  0  0  0
   60.4777   -6.3141   -9.1830 C   0  0  0  0  0  0  0  0  0  0  0  0
   63.1557   -7.1842   -9.4039 C   0  0  0  0  0  0  0  0  0  0  0  0
   62.4530   -6.6060  -10.4580 O   0  0  0  0  0  0  0  0  0  0  0  0
 32 33  1  0  0  0
 33 26  1  0  0  0
 26 27  2  0  0  0
 27 28  1  0  0  0
 28 29  2  0  0  0
 29 30  1  0  0  0
 30 31  2  0  0  0
 29 23  1  0  0  0
 23 24  2  0  0  0
 23 25  2  0  0  0
 23  1  1  0  0  0
  1  2  1  0  0  0
  2  3  1  0  0  0
  3  4  1  0  0  0
  4  5  1  0  0  0
  5  6  1  0  0  0
  4  7  1  0  0  0
  7  8  2  0  0  0
  7  9  1  0  0  0
  9 10  2  0  0  0
 10 11  1  0  0  0
 11 12  2  0  0  0
 12 13  1  0  0  0
 13 14  2  0  0  0
 13 15  1  0  0  0
 15 16  1  0  0  0
 15 17  1  0  0  0
 15 18  1  0  0  0
 11 19  1  0  0  0
 19 20  1  0  0  0
 19 21  2  0  0  0
 31 26  1  0  0  0
  6  1  1  0  0  0
 14  9  1  0  0  0
 20 22  1  0  0  0
M  END
> <minimizedAffinity>
-6.10509

> <CNNscore>
0.2882853746

> <CNNaffinity>
5.9957413673

> <CNN_VS>
1.7284845114

> <CNNaffinity_variance>
0.2577371001

$$$$
[H]OC(=O)c1c([H])c(C(=O)N2C([H])([H])C([H])([H])N(S(=O)(=O)c3c([H])c([H])c(OC([H])([H])[H])c([H])c3[H])C([H])([H])C2([H])[H])c([H])c(C(F)(F)F)c1[H]


 33 35  0  0  0  0  0  0  0  0999 V2000
   54.9323   -4.6982   -7.4507 N   0  0  0  0  0  0  0  0  0  0  0  0
   54.4293   -3.5300   -7.9893 C   0  0  0  0  0  0  0  0  0  0  0  0
   53.0526   -3.8185   -8.6358 C   0  0  0  0  0  0  0  0  0  0  0  0
   52.2412   -4.3076   -7.5502 N   0  0  0  0  0  0  0  0  0  0  0  0
   52.6649   -5.5874   -6.9916 C   0  0  0  0  0  0  0  0  0  0  0  0
   54.1022   -5.8587   -7.3708 C   0  0  0  0  0  0  0  0  0  0  0  0
   51.1874   -3.5142   -7.0620 C   0  0  0  0  0  0  0  0  0  0  0  0
   50.9775   -2.3589   -7.5685 O   0  0  0  0  0  0  0  0  0  0  0  0
   50.2906   -3.9245   -5.9578 C   0  0  0  0  0  0  0  0  0  0  0  0
   50.6504   -4.8077   -4.9676 C   0  0  0  0  0  0  0  0  0  0  0  0
   49.9221   -5.0468   -3.8096 C   0  0  0  0  0  0  0  0  0  0  0  0
   48.7582   -4.3438   -3.6638 C   0  0  0  0  0  0  0  0  0  0  0  0
   48.3291   -3.4371   -4.6303 C   0  0  0  0  0  0  0  0  0  0  0  0
   49.0935   -3.2385   -5.7624 C   0  0  0  0  0  0  0  0  0  0  0  0
   47.0927   -2.6610   -4.4361 C   0  0  0  0  0  0  0  0  0  0  0  0
   46.3358   -2.6094   -5.5840 F   0  0  0  0  0  0  0  0  0  0  0  0
   47.3626   -1.3677   -4.0185 F   0  0  0  0  0  0  0  0  0  0  0  0
   46.3294   -3.3025   -3.4688 F   0  0  0  0  0  0  0  0  0  0  0  0
   50.4556   -5.9901   -2.8510 C   0  0  0  0  0  0  0  0  0  0  0  0
   51.5841   -6.7354   -3.1997 O   0  0  0  0  0  0  0  0  0  0  0  0
   49.9309   -6.1422   -1.7497 O   0  0  0  0  0  0  0  0  0  0  0  0
   51.5141   -7.5708   -3.8123 H   0  0  0  0  0  0  0  0  0  0  0  0
   56.5305   -4.9605   -7.1213 S   0  0  0  0  0  0  0  0  0  0  0  0
   57.2174   -5.8866   -8.1136 O   0  0  0  0  0  0  0  0  0  0  0  0
   57.2724   -3.6124   -7.1974 O   0  0  0  0  0  0  0  0  0  0  0  0
   57.0742   -6.6919   -2.9445 C   0  0  0  0  0  0  0  0  0  0  0  0
   56.3473   -5.5138   -3.1512 C   0  0  0  0  0  0  0  0  0  0  0  0
   56.2242   -5.0291   -4.4186 C   0  0  0  0  0  0  0  0  0  0  0  0
   56.7890   -5.6494   -5.5418 C   0  0  0  0  0  0  0  0  0  0  0  0
   57.4868   -6.7926   -5.2779 C   0  0  0  0  0  0  0  0  0  0  0  0
   57.6540   -7.3440   -4.0108 C   0  0  0  0  0  0  0  0  0  0  0  0
   56.2714   -8.0021   -1.0272 C   0  0  0  0  0  0  0  0  0  0  0  0
   57.2330   -7.2367   -1.6819 O   0  0  0  0  0  0  0  0  0  0  0  0
 32 33  1  0  0  0
 33 26  1  0  0  0
 26 27  2  0  0  0
 27 28  1  0  0  0
 28 29  2  0  0  0
 29 30  1  0  0  0
 30 31  2  0  0  0
 29 23  1  0  0  0
 23 24  2  0  0  0
 23 25  2  0  0  0
 23  1  1  0  0  0
  1  2  1  0  0  0
  2  3  1  0  0  0
  3  4  1  0  0  0
  4  5  1  0  0  0
  5  6  1  0  0  0
  4  7  1  0  0  0
  7  8  2  0  0  0
  7  9  1  0  0  0
  9 10  2  0  0  0
 10 11  1  0  0  0
 11 12  2  0  0  0
 12 13  1  0  0  0
 13 14  2  0  0  0
 13 15  1  0  0  0
 15 16  1  0  0  0
 15 17  1  0  0  0
 15 18  1  0  0  0
 11 19  1  0  0  0
 19 20  1  0  0  0
 19 21  2  0  0  0
 31 26  1  0  0  0
  6  1  1  0  0  0
 14  9  1  0  0  0
 20 22  1  0  0  0
M  END
> <minimizedAffinity>
-6.22041

> <CNNscore>
0.2516596615

> <CNNaffinity>
6.1407485008

> <CNN_VS>
1.5453786850

> <CNNaffinity_variance>
0.2206940204

$$$$
[H]OC(=O)c1c([H])c(C(=O)N2C([H])([H])C([H])([H])N(S(=O)(=O)c3c([H])c([H])c(OC([H])([H])[H])c([H])c3[H])C([H])([H])C2([H])[H])c([H])c(C(F)(F)F)c1[H]


 33 35  0  0  0  0  0  0  0  0999 V2000
   54.6114   -4.3033   -7.9539 N   0  0  0  0  0  0  0  0  0  0  0  0
   54.0720   -3.0834   -8.3129 C   0  0  0  0  0  0  0  0  0  0  0  0
   52.6347   -3.2989   -8.8459 C   0  0  0  0  0  0  0  0  0  0  0  0
   51.9286   -3.8996   -7.7429 N   0  0  0  0  0  0  0  0  0  0  0  0
   52.3897   -5.2324   -7.3680 C   0  0  0  0  0  0  0  0  0  0  0  0
   53.7789   -5.4642   -7.9151 C   0  0  0  0  0  0  0  0  0  0  0  0
   50.9381   -3.1610   -7.0708 C   0  0  0  0  0  0  0  0  0  0  0  0
   50.6935   -1.9579   -7.4286 O   0  0  0  0  0  0  0  0  0  0  0  0
   50.1499   -3.6851   -5.9324 C   0  0  0  0  0  0  0  0  0  0  0  0
   50.6528   -4.5444   -4.9845 C   0  0  0  0  0  0  0  0  0  0  0  0
   50.0170   -4.8816   -3.7969 C   0  0  0  0  0  0  0  0  0  0  0  0
   48.7956   -4.3085   -3.5738 C   0  0  0  0  0  0  0  0  0  0  0  0
   48.2227   -3.4335   -4.4938 C   0  0  0  0  0  0  0  0  0  0  0  0
   48.9000   -3.1333   -5.6585 C   0  0  0  0  0  0  0  0  0  0  0  0
   46.9243   -2.7962   -4.2167 C   0  0  0  0  0  0  0  0  0  0  0  0
   47.0706   -1.4819   -3.8366 F   0  0  0  0  0  0  0  0  0  0  0  0
   46.2241   -3.4728   -3.2308 F   0  0  0  0  0  0  0  0  0  0  0  0
   46.1816   -2.8045   -5.3906 F   0  0  0  0  0  0  0  0  0  0  0  0
   50.6970   -5.7818   -2.8910 C   0  0  0  0  0  0  0  0  0  0  0  0
   50.0501   -6.1642   -1.7138 O   0  0  0  0  0  0  0  0  0  0  0  0
   51.8238   -6.2046   -3.1420 O   0  0  0  0  0  0  0  0  0  0  0  0
   50.0160   -5.5383   -0.8860 H   0  0  0  0  0  0  0  0  0  0  0  0
   56.2309   -4.6020   -7.8150 S   0  0  0  0  0  0  0  0  0  0  0  0
   56.9630   -3.6111   -6.9227 O   0  0  0  0  0  0  0  0  0  0  0  0
   56.4182   -5.9892   -7.1716 O   0  0  0  0  0  0  0  0  0  0  0  0
   58.3101   -4.4229  -11.8627 C   0  0  0  0  0  0  0  0  0  0  0  0
   57.0869   -3.7776  -11.6476 C   0  0  0  0  0  0  0  0  0  0  0  0
   56.4984   -3.8719  -10.4224 C   0  0  0  0  0  0  0  0  0  0  0  0
   57.0537   -4.5853   -9.3509 C   0  0  0  0  0  0  0  0  0  0  0  0
   58.2453   -5.1941   -9.6208 C   0  0  0  0  0  0  0  0  0  0  0  0
   58.9022   -5.1411  -10.8468 C   0  0  0  0  0  0  0  0  0  0  0  0
   60.0696   -3.5641  -13.3472 C   0  0  0  0  0  0  0  0  0  0  0  0
   58.9596   -4.3627  -13.0837 O   0  0  0  0  0  0  0  0  0  0  0  0
 32 33  1  0  0  0
 33 26  1  0  0  0
 26 27  2  0  0  0
 27 28  1  0  0  0
 28 29  2  0  0  0
 29 30  1  0  0  0
 30 31  2  0  0  0
 29 23  1  0  0  0
 23 24  2  0  0  0
 23 25  2  0  0  0
 23  1  1  0  0  0
  1  2  1  0  0  0
  2  3  1  0  0  0
  3  4  1  0  0  0
  4  5  1  0  0  0
  5  6  1  0  0  0
  4  7  1  0  0  0
  7  8  2  0  0  0
  7  9  1  0  0  0
  9 10  2  0  0  0
 10 11  1  0  0  0
 11 12  2  0  0  0
 12 13  1  0  0  0
 13 14  2  0  0  0
 13 15  1  0  0  0
 15 16  1  0  0  0
 15 17  1  0  0  0
 15 18  1  0  0  0
 11 19  1  0  0  0
 19 20  1  0  0  0
 19 21  2  0  0  0
 31 26  1  0  0  0
  6  1  1  0  0  0
 14  9  1  0  0  0
 20 22  1  0  0  0
M  END
> <minimizedAffinity>
-8.82533

> <CNNscore>
0.2386948168

> <CNNaffinity>
6.2056083679

> <CNN_VS>
1.4812465906

> <CNNaffinity_variance>
0.1404671371

$$$$
[H]OC(=O)c1c([H])c(C(=O)N2C([H])([H])C([H])([H])N(S(=O)(=O)c3c([H])c([H])c(OC([H])([H])[H])c([H])c3[H])C([H])([H])C2([H])[H])c([H])c(C(F)(F)F)c1[H]


 33 35  0  0  0  0  0  0  0  0999 V2000
   54.6344   -4.8537   -7.2347 N   0  0  0  0  0  0  0  0  0  0  0  0
   54.0166   -3.7864   -7.8566 C   0  0  0  0  0  0  0  0  0  0  0  0
   52.5736   -4.1893   -8.2462 C   0  0  0  0  0  0  0  0  0  0  0  0
   51.9439   -4.5252   -6.9944 N   0  0  0  0  0  0  0  0  0  0  0  0
   52.4903   -5.7012   -6.3252 C   0  0  0  0  0  0  0  0  0  0  0  0
   53.8679   -6.0027   -6.8676 C   0  0  0  0  0  0  0  0  0  0  0  0
   50.9415   -3.6852   -6.4768 C   0  0  0  0  0  0  0  0  0  0  0  0
   50.6187   -2.6211   -7.1083 O   0  0  0  0  0  0  0  0  0  0  0  0
   50.2271   -3.9417   -5.2057 C   0  0  0  0  0  0  0  0  0  0  0  0
   48.9331   -3.5465   -4.9618 C   0  0  0  0  0  0  0  0  0  0  0  0
   48.1662   -3.9537   -3.8782 C   0  0  0  0  0  0  0  0  0  0  0  0
   48.7633   -4.8094   -2.9942 C   0  0  0  0  0  0  0  0  0  0  0  0
   50.0736   -5.2459   -3.1753 C   0  0  0  0  0  0  0  0  0  0  0  0
   50.7898   -4.8091   -4.2715 C   0  0  0  0  0  0  0  0  0  0  0  0
   50.6852   -6.1983   -2.2331 C   0  0  0  0  0  0  0  0  0  0  0  0
   49.7532   -6.7435   -1.3802 F   0  0  0  0  0  0  0  0  0  0  0  0
   51.6854   -5.6019   -1.4823 F   0  0  0  0  0  0  0  0  0  0  0  0
   51.2293   -7.2429   -2.9696 F   0  0  0  0  0  0  0  0  0  0  0  0
   46.8073   -3.4661   -3.7828 C   0  0  0  0  0  0  0  0  0  0  0  0
   45.8126   -4.3357   -3.3301 O   0  0  0  0  0  0  0  0  0  0  0  0
   46.5230   -2.3115   -4.0951 O   0  0  0  0  0  0  0  0  0  0  0  0
   45.3921   -5.0507   -3.9547 H   0  0  0  0  0  0  0  0  0  0  0  0
   56.2719   -5.0388   -7.1084 S   0  0  0  0  0  0  0  0  0  0  0  0
   56.8681   -5.9603   -8.1618 O   0  0  0  0  0  0  0  0  0  0  0  0
   56.9355   -3.6627   -7.3069 O   0  0  0  0  0  0  0  0  0  0  0  0
   57.4230   -6.6358   -3.0019 C   0  0  0  0  0  0  0  0  0  0  0  0
   56.6229   -5.4954   -3.1374 C   0  0  0  0  0  0  0  0  0  0  0  0
   56.3170   -5.0496   -4.3880 C   0  0  0  0  0  0  0  0  0  0  0  0
   56.7612   -5.6746   -5.5616 C   0  0  0  0  0  0  0  0  0  0  0  0
   57.5381   -6.7799   -5.3664 C   0  0  0  0  0  0  0  0  0  0  0  0
   57.8908   -7.2904   -4.1204 C   0  0  0  0  0  0  0  0  0  0  0  0
   58.9589   -6.8593   -1.0971 C   0  0  0  0  0  0  0  0  0  0  0  0
   57.7665   -7.1401   -1.7594 O   0  0  0  0  0  0  0  0  0  0  0  0
 32 33  1  0  0  0
 33 26  1  0  0  0
 26 27  2  0  0  0
 27 28  1  0  0  0
 28 29  2  0  0  0
 29 30  1  0  0  0
 30 31  2  0  0  0
 29 23  1  0  0  0
 23 24  2  0  0  0
 23 25  2  0  0  0
 23  1  1  0  0  0
  1  2  1  0  0  0
  2  3  1  0  0  0
  3  4  1  0  0  0
  4  5  1  0  0  0
  5  6  1  0  0  0
  4  7  1  0  0  0
  7  8  2  0  0  0
  7  9  1  0  0  0
  9 10  2  0  0  0
 10 11  1  0  0  0
 11 12  2  0  0  0
 12 13  1  0  0  0
 13 14  2  0  0  0
 13 15  1  0  0  0
 15 16  1  0  0  0
 15 17  1  0  0  0
 15 18  1  0  0  0
 11 19  1  0  0  0
 19 20  1  0  0  0
 19 21  2  0  0  0
 31 26  1  0  0  0
  6  1  1  0  0  0
 14  9  1  0  0  0
 20 22  1  0  0  0
M  END
> <minimizedAffinity>
-6.34790

> <CNNscore>
0.2168138921

> <CNNaffinity>
6.1368875504

> <CNN_VS>
1.3305624723

> <CNNaffinity_variance>
0.2935032248

$$$$
[H]OC(=O)c1c([H])c(C(=O)N2C([H])([H])C([H])([H])N(S(=O)(=O)c3c([H])c([H])c(OC([H])([H])[H])c([H])c3[H])C([H])([H])C2([H])[H])c([H])c(C(F)(F)F)c1[H]


 33 35  0  0  0  0  0  0  0  0999 V2000
   52.5260   -4.1335   -7.7523 N   0  0  0  0  0  0  0  0  0  0  0  0
   51.4504   -3.4826   -7.1802 C   0  0  0  0  0  0  0  0  0  0  0  0
   50.4441   -4.5318   -6.6482 C   0  0  0  0  0  0  0  0  0  0  0  0
   51.1946   -5.2911   -5.6806 N   0  0  0  0  0  0  0  0  0  0  0  0
   52.2941   -6.0766   -6.2314 C   0  0  0  0  0  0  0  0  0  0  0  0
   52.6650   -5.5473   -7.5972 C   0  0  0  0  0  0  0  0  0  0  0  0
   50.8867   -5.1667   -4.3138 C   0  0  0  0  0  0  0  0  0  0  0  0
   49.9634   -4.3632   -3.9434 O   0  0  0  0  0  0  0  0  0  0  0  0
   51.5895   -5.9055   -3.2405 C   0  0  0  0  0  0  0  0  0  0  0  0
   52.7572   -5.4775   -2.6548 C   0  0  0  0  0  0  0  0  0  0  0  0
   53.3223   -6.0250   -1.5106 C   0  0  0  0  0  0  0  0  0  0  0  0
   52.6537   -7.0728   -0.9402 C   0  0  0  0  0  0  0  0  0  0  0  0
   51.4684   -7.5626   -1.4837 C   0  0  0  0  0  0  0  0  0  0  0  0
   50.9514   -6.9794   -2.6230 C   0  0  0  0  0  0  0  0  0  0  0  0
   50.7429   -8.6662   -0.8321 C   0  0  0  0  0  0  0  0  0  0  0  0
   50.2221   -9.5484   -1.7507 F   0  0  0  0  0  0  0  0  0  0  0  0
   49.7160   -8.1974   -0.0286 F   0  0  0  0  0  0  0  0  0  0  0  0
   51.6473   -9.3732   -0.0499 F   0  0  0  0  0  0  0  0  0  0  0  0
   54.5443   -5.4377   -1.0053 C   0  0  0  0  0  0  0  0  0  0  0  0
   54.4556   -4.3531   -0.1299 O   0  0  0  0  0  0  0  0  0  0  0  0
   55.6442   -5.8755   -1.3370 O   0  0  0  0  0  0  0  0  0  0  0  0
   54.2698   -3.3916   -0.4750 H   0  0  0  0  0  0  0  0  0  0  0  0
   53.5542   -3.4482   -8.8499 S   0  0  0  0  0  0  0  0  0  0  0  0
   53.1358   -3.6593  -10.2971 O   0  0  0  0  0  0  0  0  0  0  0  0
   53.5709   -1.9251   -8.6185 O   0  0  0  0  0  0  0  0  0  0  0  0
   57.8450   -4.9585   -8.6349 C   0  0  0  0  0  0  0  0  0  0  0  0
   57.2177   -4.7320   -9.8655 C   0  0  0  0  0  0  0  0  0  0  0  0
   55.9281   -4.2924   -9.8768 C   0  0  0  0  0  0  0  0  0  0  0  0
   55.1839   -4.0496   -8.7138 C   0  0  0  0  0  0  0  0  0  0  0  0
   55.8475   -4.2894   -7.5453 C   0  0  0  0  0  0  0  0  0  0  0  0
   57.1619   -4.7393   -7.4586 C   0  0  0  0  0  0  0  0  0  0  0  0
   59.7472   -6.2719   -9.4680 C   0  0  0  0  0  0  0  0  0  0  0  0
   59.1539   -5.4023   -8.5564 O   0  0  0  0  0  0  0  0  0  0  0  0
 32 33  1  0  0  0
 33 26  1  0  0  0
 26 27  2  0  0  0
 27 28  1  0  0  0
 28 29  2  0  0  0
 29 30  1  0  0  0
 30 31  2  0  0  0
 29 23  1  0  0  0
 23 24  2  0  0  0
 23 25  2  0  0  0
 23  1  1  0  0  0
  1  2  1  0  0  0
  2  3  1  0  0  0
  3  4  1  0  0  0
  4  5  1  0  0  0
  5  6  1  0  0  0
  4  7  1  0  0  0
  7  8  2  0  0  0
  7  9  1  0  0  0
  9 10  2  0  0  0
 10 11  1  0  0  0
 11 12  2  0  0  0
 12 13  1  0  0  0
 13 14  2  0  0  0
 13 15  1  0  0  0
 15 16  1  0  0  0
 15 17  1  0  0  0
 15 18  1  0  0  0
 11 19  1  0  0  0
 19 20  1  0  0  0
 19 21  2  0  0  0
 31 26  1  0  0  0
  6  1  1  0  0  0
 14  9  1  0  0  0
 20 22  1  0  0  0
M  END
> <minimizedAffinity>
-9.63915

> <CNNscore>
0.2102063894

> <CNNaffinity>
6.2880687714

> <CNN_VS>
1.3217922449

> <CNNaffinity_variance>
0.2228705436

$$$$
[H]C1=C([H])C([H])(F)C([H])([H])C([H])=C1N([H])C(=O)C1(C(=O)N([H])c2c([H])c([H])c(Oc3c([H])c([H])nc4c([H])c(OC([H])([H])C([H])([H])C([H])([H])N5C([H])([H])C([H])([H])C([H])([H])C5([H])[H])c(OC([H])([H])[H])c([H])c34)c([H])c2[H])C([H])([H])C1([H])[H]


 46 51  0  0  0  0  0  0  0  0999 V2000
   55.9041   -5.8017   -5.4654 C   0  0  0  0  0  0  0  0  0  0  0  0
   55.5220   -7.0936   -5.5869 C   0  0  0  0  0  0  0  0  0  0  0  0
   55.0999   -7.8348   -4.4737 C   0  0  0  0  0  0  0  0  0  0  0  0
   55.0543   -7.2953   -3.2208 C   0  0  0  0  0  0  0  0  0  0  0  0
   55.4556   -5.9513   -3.1180 C   0  0  0  0  0  0  0  0  0  0  0  0
   55.8659   -5.2334   -4.2090 C   0  0  0  0  0  0  0  0  0  0  0  0
   54.6695   -7.9845   -2.0278 N   0  0  0  0  0  0  0  0  0  0  0  0
   53.4322   -7.7991   -1.4346 C   0  0  0  0  0  0  0  0  0  0  0  0
   52.6401   -6.9511   -2.0246 O   0  0  0  0  0  0  0  0  0  0  0  0
   55.3914   -8.6085   -1.5946 H   0  0  0  0  0  0  0  0  0  0  0  0
   52.8424   -8.3934   -0.2275 C   0  0  0  0  0  0  0  0  0  0  0  0
   53.1021   -7.7226    1.1008 C   0  0  0  0  0  0  0  0  0  0  0  0
   53.9383   -8.8745    0.7683 C   0  0  0  0  0  0  0  0  0  0  0  0
   51.6528   -9.2740   -0.2279 C   0  0  0  0  0  0  0  0  0  0  0  0
   51.6977  -10.2433   -1.0758 O   0  0  0  0  0  0  0  0  0  0  0  0
   50.5307   -9.1626    0.5798 N   0  0  0  0  0  0  0  0  0  0  0  0
   50.6132   -8.3878    1.3246 H   0  0  0  0  0  0  0  0  0  0  0  0
   49.3459   -9.9161    0.6559 C   0  0  0  0  0  0  0  0  0  0  0  0
   48.3983   -9.9050   -0.2314 C   0  0  0  0  0  0  0  0  0  0  0  0
   47.1575  -10.6870   -0.1636 C   0  0  0  0  0  0  0  0  0  0  0  0
   46.9844  -11.5222    1.0273 C   0  0  0  0  0  0  0  0  0  0  0  0
   46.9146  -12.8677    0.5825 F   0  0  0  0  0  0  0  0  0  0  0  0
   48.0840  -11.4854    1.9779 C   0  0  0  0  0  0  0  0  0  0  0  0
   49.1715  -10.7739    1.8511 C   0  0  0  0  0  0  0  0  0  0  0  0
   56.3325   -4.9979   -6.5043 O   0  0  0  0  0  0  0  0  0  0  0  0
   57.8751   -4.9270  -10.3752 C   0  0  0  0  0  0  0  0  0  0  0  0
   57.3461   -4.9417   -9.1123 C   0  0  0  0  0  0  0  0  0  0  0  0
   56.0351   -4.5916   -8.8571 C   0  0  0  0  0  0  0  0  0  0  0  0
   55.5364   -4.6209   -7.5712 C   0  0  0  0  0  0  0  0  0  0  0  0
   54.2164   -4.2585   -7.4085 C   0  0  0  0  0  0  0  0  0  0  0  0
   53.4524   -3.8880   -8.4984 C   0  0  0  0  0  0  0  0  0  0  0  0
   53.9844   -3.8756   -9.7307 N   0  0  0  0  0  0  0  0  0  0  0  0
   55.2741   -4.2227   -9.9416 C   0  0  0  0  0  0  0  0  0  0  0  0
   55.8027   -4.2047  -11.2319 C   0  0  0  0  0  0  0  0  0  0  0  0
   57.1060   -4.5513  -11.4945 C   0  0  0  0  0  0  0  0  0  0  0  0
   59.8392   -6.1070   -9.6736 C   0  0  0  0  0  0  0  0  0  0  0  0
   59.1772   -5.2807  -10.5872 O   0  0  0  0  0  0  0  0  0  0  0  0
   57.6836   -4.5526  -12.7301 O   0  0  0  0  0  0  0  0  0  0  0  0
   57.4573   -3.8433  -13.8724 C   0  0  0  0  0  0  0  0  0  0  0  0
   56.4637   -4.3798  -14.8469 C   0  0  0  0  0  0  0  0  0  0  0  0
   56.1047   -3.3741  -15.9232 C   0  0  0  0  0  0  0  0  0  0  0  0
   57.0629   -3.3609  -17.0005 N   0  0  0  0  0  0  0  0  0  0  0  0
   56.6092   -2.4685  -18.0251 C   0  0  0  0  0  0  0  0  0  0  0  0
   56.1504   -3.3671  -19.1304 C   0  0  0  0  0  0  0  0  0  0  0  0
   57.1558   -4.5074  -19.0665 C   0  0  0  0  0  0  0  0  0  0  0  0
   57.2927   -4.6588  -17.5608 C   0  0  0  0  0  0  0  0  0  0  0  0
 36 37  1  0  0  0
 37 26  1  0  0  0
 26 27  2  0  0  0
 27 28  1  0  0  0
 28 29  2  0  0  0
 29 25  1  0  0  0
 25  1  1  0  0  0
  1  2  2  0  0  0
  2  3  1  0  0  0
  3  4  2  0  0  0
  4  7  1  0  0  0
  7  8  1  0  0  0
  8  9  2  0  0  0
  8 11  1  0  0  0
 11 12  1  0  0  0
 12 13  1  0  0  0
 11 14  1  0  0  0
 14 15  2  0  0  0
 14 16  1  0  0  0
 16 18  1  0  0  0
 18 19  2  0  0  0
 19 20  1  0  0  0
 20 21  1  0  0  0
 21 22  1  0  0  0
 21 23  1  0  0  0
 23 24  2  0  0  0
  4  5  1  0  0  0
  5  6  2  0  0  0
 29 30  1  0  0  0
 30 31  2  0  0  0
 31 32  1  0  0  0
 32 33  2  0  0  0
 33 34  1  0  0  0
 34 35  2  0  0  0
 35 38  1  0  0  0
 38 39  1  0  0  0
 39 40  1  0  0  0
 40 41  1  0  0  0
 41 42  1  0  0  0
 42 43  1  0  0  0
 43 44  1  0  0  0
 44 45  1  0  0  0
 45 46  1  0  0  0
 35 26  1  0  0  0
 46 42  1  0  0  0
 33 28  1  0  0  0
  6  1  1  0  0  0
 13 11  1  0  0  0
 24 18  1  0  0  0
  7 10  1  0  0  0
 16 17  1  0  0  0
M  END
> <minimizedAffinity>
-9.90536

> <CNNscore>
0.3664658070

> <CNNaffinity>
6.7047729492

> <CNN_VS>
2.4570701122

> <CNNaffinity_variance>
0.0874196440

$$$$
[H]C1=C([H])C([H])(F)C([H])([H])C([H])=C1N([H])C(=O)C1(C(=O)N([H])c2c([H])c([H])c(Oc3c([H])c([H])nc4c([H])c(OC([H])([H])C([H])([H])C([H])([H])N5C([H])([H])C([H])([H])C([H])([H])C5([H])[H])c(OC([H])([H])[H])c([H])c34)c([H])c2[H])C([H])([H])C1([H])[H]


 46 51  0  0  0  0  0  0  0  0999 V2000
   54.5910   -5.5924   -5.3189 C   0  0  0  0  0  0  0  0  0  0  0  0
   55.7853   -5.0088   -5.0684 C   0  0  0  0  0  0  0  0  0  0  0  0
   56.2243   -4.7852   -3.7555 C   0  0  0  0  0  0  0  0  0  0  0  0
   55.4746   -5.1412   -2.6718 C   0  0  0  0  0  0  0  0  0  0  0  0
   54.2372   -5.7464   -2.9556 C   0  0  0  0  0  0  0  0  0  0  0  0
   53.8152   -5.9623   -4.2399 C   0  0  0  0  0  0  0  0  0  0  0  0
   55.8279   -4.9225   -1.3030 N   0  0  0  0  0  0  0  0  0  0  0  0
   56.6173   -5.8113   -0.5932 C   0  0  0  0  0  0  0  0  0  0  0  0
   57.0137   -6.8659   -1.2454 O   0  0  0  0  0  0  0  0  0  0  0  0
   55.4206   -4.0724   -0.8449 H   0  0  0  0  0  0  0  0  0  0  0  0
   57.0915   -5.7827    0.7969 C   0  0  0  0  0  0  0  0  0  0  0  0
   56.5931   -4.6798    1.7006 C   0  0  0  0  0  0  0  0  0  0  0  0
   57.9110   -4.4932    1.0963 C   0  0  0  0  0  0  0  0  0  0  0  0
   57.6079   -6.9628    1.5259 C   0  0  0  0  0  0  0  0  0  0  0  0
   57.0910   -7.1472    2.6918 O   0  0  0  0  0  0  0  0  0  0  0  0
   58.5618   -7.8670    1.0826 N   0  0  0  0  0  0  0  0  0  0  0  0
   58.8720   -7.6987    0.0642 H   0  0  0  0  0  0  0  0  0  0  0  0
   59.1390   -8.9989    1.6850 C   0  0  0  0  0  0  0  0  0  0  0  0
   58.5308  -10.1286    1.8828 C   0  0  0  0  0  0  0  0  0  0  0  0
   59.1223  -11.3171    2.5098 C   0  0  0  0  0  0  0  0  0  0  0  0
   60.5078  -11.1847    2.9668 C   0  0  0  0  0  0  0  0  0  0  0  0
   61.2775  -12.1225    2.2311 F   0  0  0  0  0  0  0  0  0  0  0  0
   61.1255   -9.8932    2.7130 C   0  0  0  0  0  0  0  0  0  0  0  0
   60.5447   -8.8758    2.1362 C   0  0  0  0  0  0  0  0  0  0  0  0
   54.0802   -5.8511   -6.5763 O   0  0  0  0  0  0  0  0  0  0  0  0
   56.7546   -4.8090   -9.5979 C   0  0  0  0  0  0  0  0  0  0  0  0
   55.8599   -5.1336   -8.6136 C   0  0  0  0  0  0  0  0  0  0  0  0
   54.6303   -4.5154   -8.5006 C   0  0  0  0  0  0  0  0  0  0  0  0
   53.7535   -4.8709   -7.4965 C   0  0  0  0  0  0  0  0  0  0  0  0
   52.5475   -4.2043   -7.4603 C   0  0  0  0  0  0  0  0  0  0  0  0
   52.2568   -3.2311   -8.3968 C   0  0  0  0  0  0  0  0  0  0  0  0
   53.1442   -2.9210   -9.3549 N   0  0  0  0  0  0  0  0  0  0  0  0
   54.3404   -3.5466   -9.4325 C   0  0  0  0  0  0  0  0  0  0  0  0
   55.2441   -3.2086  -10.4393 C   0  0  0  0  0  0  0  0  0  0  0  0
   56.4695   -3.8185  -10.5588 C   0  0  0  0  0  0  0  0  0  0  0  0
   58.8289   -5.4440   -8.5799 C   0  0  0  0  0  0  0  0  0  0  0  0
   57.9613   -5.4437   -9.6768 O   0  0  0  0  0  0  0  0  0  0  0  0
   57.3975   -3.5333  -11.5167 O   0  0  0  0  0  0  0  0  0  0  0  0
   57.6745   -4.0632  -12.7421 C   0  0  0  0  0  0  0  0  0  0  0  0
   56.5287   -4.4463  -13.6168 C   0  0  0  0  0  0  0  0  0  0  0  0
   56.4676   -3.6223  -14.8879 C   0  0  0  0  0  0  0  0  0  0  0  0
   57.5379   -3.9429  -15.7993 N   0  0  0  0  0  0  0  0  0  0  0  0
   58.2482   -2.7448  -16.1339 C   0  0  0  0  0  0  0  0  0  0  0  0
   57.8330   -2.4414  -17.5393 C   0  0  0  0  0  0  0  0  0  0  0  0
   57.7154   -3.8281  -18.1544 C   0  0  0  0  0  0  0  0  0  0  0  0
   57.0804   -4.5808  -16.9973 C   0  0  0  0  0  0  0  0  0  0  0  0
 36 37  1  0  0  0
 37 26  1  0  0  0
 26 27  2  0  0  0
 27 28  1  0  0  0
 28 29  2  0  0  0
 29 25  1  0  0  0
 25  1  1  0  0  0
  1  2  2  0  0  0
  2  3  1  0  0  0
  3  4  2  0  0  0
  4  7  1  0  0  0
  7  8  1  0  0  0
  8  9  2  0  0  0
  8 11  1  0  0  0
 11 12  1  0  0  0
 12 13  1  0  0  0
 11 14  1  0  0  0
 14 15  2  0  0  0
 14 16  1  0  0  0
 16 18  1  0  0  0
 18 19  2  0  0  0
 19 20  1  0  0  0
 20 21  1  0  0  0
 21 22  1  0  0  0
 21 23  1  0  0  0
 23 24  2  0  0  0
  4  5  1  0  0  0
  5  6  2  0  0  0
 29 30  1  0  0  0
 30 31  2  0  0  0
 31 32  1  0  0  0
 32 33  2  0  0  0
 33 34  1  0  0  0
 34 35  2  0  0  0
 35 38  1  0  0  0
 38 39  1  0  0  0
 39 40  1  0  0  0
 40 41  1  0  0  0
 41 42  1  0  0  0
 42 43  1  0  0  0
 43 44  1  0  0  0
 44 45  1  0  0  0
 45 46  1  0  0  0
 35 26  1  0  0  0
 46 42  1  0  0  0
 33 28  1  0  0  0
  6  1  1  0  0  0
 13 11  1  0  0  0
 24 18  1  0  0  0
  7 10  1  0  0  0
 16 17  1  0  0  0
M  END
> <minimizedAffinity>
-7.67402

> <CNNscore>
0.3555220366

> <CNNaffinity>
6.8610448837

> <CNN_VS>
2.4392526150

> <CNNaffinity_variance>
0.2076539546

$$$$
[H]C1=C([H])C([H])(F)C([H])([H])C([H])=C1N([H])C(=O)C1(C(=O)N([H])c2c([H])c([H])c(Oc3c([H])c([H])nc4c([H])c(OC([H])([H])C([H])([H])C([H])([H])N5C([H])([H])C([H])([H])C([H])([H])C5([H])[H])c(OC([H])([H])[H])c([H])c34)c([H])c2[H])C([H])([H])C1([H])[H]


 46 51  0  0  0  0  0  0  0  0999 V2000
   50.7943   -5.7156   -4.4491 C   0  0  0  0  0  0  0  0  0  0  0  0
   50.7738   -4.7892   -3.4636 C   0  0  0  0  0  0  0  0  0  0  0  0
   51.2751   -5.0758   -2.1856 C   0  0  0  0  0  0  0  0  0  0  0  0
   51.8043   -6.2944   -1.8730 C   0  0  0  0  0  0  0  0  0  0  0  0
   51.8159   -7.2418   -2.9125 C   0  0  0  0  0  0  0  0  0  0  0  0
   51.3253   -6.9550   -4.1579 C   0  0  0  0  0  0  0  0  0  0  0  0
   52.3069   -6.6833   -0.5914 N   0  0  0  0  0  0  0  0  0  0  0  0
   53.6508   -6.5992   -0.2689 C   0  0  0  0  0  0  0  0  0  0  0  0
   54.4339   -6.1513   -1.2074 O   0  0  0  0  0  0  0  0  0  0  0  0
   51.6104   -7.0806    0.0833 H   0  0  0  0  0  0  0  0  0  0  0  0
   54.3696   -6.9403    0.9661 C   0  0  0  0  0  0  0  0  0  0  0  0
   53.5610   -7.3365    2.1788 C   0  0  0  0  0  0  0  0  0  0  0  0
   54.0274   -5.9524    2.1196 C   0  0  0  0  0  0  0  0  0  0  0  0
   55.7764   -7.3981    1.0123 C   0  0  0  0  0  0  0  0  0  0  0  0
   56.6539   -6.4565    0.9508 O   0  0  0  0  0  0  0  0  0  0  0  0
   56.2262   -8.7057    1.1203 N   0  0  0  0  0  0  0  0  0  0  0  0
   55.4335   -9.4219    1.2635 H   0  0  0  0  0  0  0  0  0  0  0  0
   57.5191   -9.2578    1.1531 C   0  0  0  0  0  0  0  0  0  0  0  0
   58.0996   -9.7317    2.2132 C   0  0  0  0  0  0  0  0  0  0  0  0
   59.4480  -10.3107    2.2602 C   0  0  0  0  0  0  0  0  0  0  0  0
   60.1919  -10.3192    0.9983 C   0  0  0  0  0  0  0  0  0  0  0  0
   60.4419  -11.6778    0.6746 F   0  0  0  0  0  0  0  0  0  0  0  0
   59.4808   -9.7732   -0.1464 C   0  0  0  0  0  0  0  0  0  0  0  0
   58.2710   -9.2824   -0.1232 C   0  0  0  0  0  0  0  0  0  0  0  0
   50.3241   -5.5210   -5.7336 O   0  0  0  0  0  0  0  0  0  0  0  0
   53.8939   -5.0421   -7.8300 C   0  0  0  0  0  0  0  0  0  0  0  0
   52.7137   -5.1764   -7.1489 C   0  0  0  0  0  0  0  0  0  0  0  0
   51.7319   -4.2058   -7.1750 C   0  0  0  0  0  0  0  0  0  0  0  0
   50.5539   -4.3775   -6.4778 C   0  0  0  0  0  0  0  0  0  0  0  0
   49.6283   -3.3595   -6.5620 C   0  0  0  0  0  0  0  0  0  0  0  0
   49.8936   -2.2323   -7.3156 C   0  0  0  0  0  0  0  0  0  0  0  0
   51.0559   -2.1125   -7.9762 N   0  0  0  0  0  0  0  0  0  0  0  0
   51.9954   -3.0836   -7.9250 C   0  0  0  0  0  0  0  0  0  0  0  0
   53.1938   -2.9369   -8.6227 C   0  0  0  0  0  0  0  0  0  0  0  0
   54.1759   -3.8975   -8.6020 C   0  0  0  0  0  0  0  0  0  0  0  0
   55.6413   -6.1730   -6.6425 C   0  0  0  0  0  0  0  0  0  0  0  0
   54.8408   -6.0251   -7.7797 O   0  0  0  0  0  0  0  0  0  0  0  0
   55.3683   -3.8145   -9.2589 O   0  0  0  0  0  0  0  0  0  0  0  0
   55.8678   -4.4154  -10.3762 C   0  0  0  0  0  0  0  0  0  0  0  0
   57.1244   -3.8689  -10.9654 C   0  0  0  0  0  0  0  0  0  0  0  0
   57.4163   -4.4374  -12.3402 C   0  0  0  0  0  0  0  0  0  0  0  0
   57.1574   -3.4853  -13.3917 N   0  0  0  0  0  0  0  0  0  0  0  0
   55.8652   -3.7425  -13.9540 C   0  0  0  0  0  0  0  0  0  0  0  0
   56.1512   -4.3602  -15.2867 C   0  0  0  0  0  0  0  0  0  0  0  0
   57.3896   -3.6024  -15.7419 C   0  0  0  0  0  0  0  0  0  0  0  0
   58.1463   -3.5128  -14.4273 C   0  0  0  0  0  0  0  0  0  0  0  0
 36 37  1  0  0  0
 37 26  1  0  0  0
 26 27  2  0  0  0
 27 28  1  0  0  0
 28 29  2  0  0  0
 29 25  1  0  0  0
 25  1  1  0  0  0
  1  2  2  0  0  0
  2  3  1  0  0  0
  3  4  2  0  0  0
  4  7  1  0  0  0
  7  8  1  0  0  0
  8  9  2  0  0  0
  8 11  1  0  0  0
 11 12  1  0  0  0
 12 13  1  0  0  0
 11 14  1  0  0  0
 14 15  2  0  0  0
 14 16  1  0  0  0
 16 18  1  0  0  0
 18 19  2  0  0  0
 19 20  1  0  0  0
 20 21  1  0  0  0
 21 22  1  0  0  0
 21 23  1  0  0  0
 23 24  2  0  0  0
  4  5  1  0  0  0
  5  6  2  0  0  0
 29 30  1  0  0  0
 30 31  2  0  0  0
 31 32  1  0  0  0
 32 33  2  0  0  0
 33 34  1  0  0  0
 34 35  2  0  0  0
 35 38  1  0  0  0
 38 39  1  0  0  0
 39 40  1  0  0  0
 40 41  1  0  0  0
 41 42  1  0  0  0
 42 43  1  0  0  0
 43 44  1  0  0  0
 44 45  1  0  0  0
 45 46  1  0  0  0
 35 26  1  0  0  0
 46 42  1  0  0  0
 33 28  1  0  0  0
  6  1  1  0  0  0
 13 11  1  0  0  0
 24 18  1  0  0  0
  7 10  1  0  0  0
 16 17  1  0  0  0
M  END
> <minimizedAffinity>
-7.72922

> <CNNscore>
0.3289496005

> <CNNaffinity>
7.1531457901

> <CNN_VS>
2.3530244827

> <CNNaffinity_variance>
0.2007790804

$$$$
[H]C1=C([H])C([H])(F)C([H])([H])C([H])=C1N([H])C(=O)C1(C(=O)N([H])c2c([H])c([H])c(Oc3c([H])c([H])nc4c([H])c(OC([H])([H])C([H])([H])C([H])([H])N5C([H])([H])C([H])([H])C([H])([H])C5([H])[H])c(OC([H])([H])[H])c([H])c34)c([H])c2[H])C([H])([H])C1([H])[H]


 46 51  0  0  0  0  0  0  0  0999 V2000
   56.4421   -4.4647   -9.8065 C   0  0  0  0  0  0  0  0  0  0  0  0
   57.6134   -5.0510  -10.1445 C   0  0  0  0  0  0  0  0  0  0  0  0
   58.2372   -4.7759  -11.3700 C   0  0  0  0  0  0  0  0  0  0  0  0
   57.6984   -3.9104  -12.2775 C   0  0  0  0  0  0  0  0  0  0  0  0
   56.4811   -3.3124  -11.9052 C   0  0  0  0  0  0  0  0  0  0  0  0
   55.8779   -3.5850  -10.7069 C   0  0  0  0  0  0  0  0  0  0  0  0
   58.2471   -3.5964  -13.5607 N   0  0  0  0  0  0  0  0  0  0  0  0
   57.4923   -3.6519  -14.7201 C   0  0  0  0  0  0  0  0  0  0  0  0
   56.2511   -4.0161  -14.5736 O   0  0  0  0  0  0  0  0  0  0  0  0
   59.2685   -3.3634  -13.5883 H   0  0  0  0  0  0  0  0  0  0  0  0
   57.8499   -3.3765  -16.1181 C   0  0  0  0  0  0  0  0  0  0  0  0
   59.3084   -3.4286  -16.5075 C   0  0  0  0  0  0  0  0  0  0  0  0
   58.7429   -2.1071  -16.2415 C   0  0  0  0  0  0  0  0  0  0  0  0
   56.9221   -3.5285  -17.2612 C   0  0  0  0  0  0  0  0  0  0  0  0
   57.0982   -4.5949  -17.9627 O   0  0  0  0  0  0  0  0  0  0  0  0
   55.9056   -2.6610  -17.6332 N   0  0  0  0  0  0  0  0  0  0  0  0
   55.7620   -1.8466  -16.9419 H   0  0  0  0  0  0  0  0  0  0  0  0
   54.9855   -2.6883  -18.6962 C   0  0  0  0  0  0  0  0  0  0  0  0
   55.2610   -3.0568  -19.9101 C   0  0  0  0  0  0  0  0  0  0  0  0
   54.3096   -3.0901  -21.0278 C   0  0  0  0  0  0  0  0  0  0  0  0
   52.9477   -2.6398  -20.7308 C   0  0  0  0  0  0  0  0  0  0  0  0
   52.0877   -3.7453  -20.9577 F   0  0  0  0  0  0  0  0  0  0  0  0
   52.7111   -2.2420  -19.3524 C   0  0  0  0  0  0  0  0  0  0  0  0
   53.6027   -2.2477  -18.3984 C   0  0  0  0  0  0  0  0  0  0  0  0
   55.7591   -4.6757   -8.6242 O   0  0  0  0  0  0  0  0  0  0  0  0
   53.5586   -6.2117   -5.4356 C   0  0  0  0  0  0  0  0  0  0  0  0
   54.2615   -5.6930   -6.4900 C   0  0  0  0  0  0  0  0  0  0  0  0
   53.7277   -4.7416   -7.3364 C   0  0  0  0  0  0  0  0  0  0  0  0
   54.4674   -4.2401   -8.3874 C   0  0  0  0  0  0  0  0  0  0  0  0
   53.8569   -3.2918   -9.1799 C   0  0  0  0  0  0  0  0  0  0  0  0
   52.5652   -2.8815   -8.9119 C   0  0  0  0  0  0  0  0  0  0  0  0
   51.8865   -3.4002   -7.8765 N   0  0  0  0  0  0  0  0  0  0  0  0
   52.4419   -4.3328   -7.0702 C   0  0  0  0  0  0  0  0  0  0  0  0
   51.7173   -4.8542   -5.9989 C   0  0  0  0  0  0  0  0  0  0  0  0
   52.2408   -5.8011   -5.1521 C   0  0  0  0  0  0  0  0  0  0  0  0
   55.4974   -7.1310   -4.3686 C   0  0  0  0  0  0  0  0  0  0  0  0
   54.1218   -7.1516   -4.6203 O   0  0  0  0  0  0  0  0  0  0  0  0
   51.5856   -6.3518   -4.0902 O   0  0  0  0  0  0  0  0  0  0  0  0
   51.2130   -5.8758   -2.8681 C   0  0  0  0  0  0  0  0  0  0  0  0
   51.6515   -6.6288   -1.6575 C   0  0  0  0  0  0  0  0  0  0  0  0
   51.7341   -8.1229   -1.9013 C   0  0  0  0  0  0  0  0  0  0  0  0
   51.5549   -8.8851   -0.6906 N   0  0  0  0  0  0  0  0  0  0  0  0
   50.2244   -9.4149   -0.6586 C   0  0  0  0  0  0  0  0  0  0  0  0
   49.5151   -8.5881    0.3676 C   0  0  0  0  0  0  0  0  0  0  0  0
   50.6015   -8.3484    1.4056 C   0  0  0  0  0  0  0  0  0  0  0  0
   51.7953   -8.1176    0.4945 C   0  0  0  0  0  0  0  0  0  0  0  0
 36 37  1  0  0  0
 37 26  1  0  0  0
 26 27  2  0  0  0
 27 28  1  0  0  0
 28 29  2  0  0  0
 29 25  1  0  0  0
 25  1  1  0  0  0
  1  2  2  0  0  0
  2  3  1  0  0  0
  3  4  2  0  0  0
  4  7  1  0  0  0
  7  8  1  0  0  0
  8  9  2  0  0  0
  8 11  1  0  0  0
 11 12  1  0  0  0
 12 13  1  0  0  0
 11 14  1  0  0  0
 14 15  2  0  0  0
 14 16  1  0  0  0
 16 18  1  0  0  0
 18 19  2  0  0  0
 19 20  1  0  0  0
 20 21  1  0  0  0
 21 22  1  0  0  0
 21 23  1  0  0  0
 23 24  2  0  0  0
  4  5  1  0  0  0
  5  6  2  0  0  0
 29 30  1  0  0  0
 30 31  2  0  0  0
 31 32  1  0  0  0
 32 33  2  0  0  0
 33 34  1  0  0  0
 34 35  2  0  0  0
 35 38  1  0  0  0
 38 39  1  0  0  0
 39 40  1  0  0  0
 40 41  1  0  0  0
 41 42  1  0  0  0
 42 43  1  0  0  0
 43 44  1  0  0  0
 44 45  1  0  0  0
 45 46  1  0  0  0
 35 26  1  0  0  0
 46 42  1  0  0  0
 33 28  1  0  0  0
  6  1  1  0  0  0
 13 11  1  0  0  0
 24 18  1  0  0  0
  7 10  1  0  0  0
 16 17  1  0  0  0
M  END
> <minimizedAffinity>
-8.91514

> <CNNscore>
0.2794898450

> <CNNaffinity>
6.9732828140

> <CNN_VS>
1.9489617348

> <CNNaffinity_variance>
0.0601728186

$$$$
[H]C1=C([H])C([H])(F)C([H])([H])C([H])=C1N([H])C(=O)C1(C(=O)N([H])c2c([H])c([H])c(Oc3c([H])c([H])nc4c([H])c(OC([H])([H])C([H])([H])C([H])([H])N5C([H])([H])C([H])([H])C([H])([H])C5([H])[H])c(OC([H])([H])[H])c([H])c34)c([H])c2[H])C([H])([H])C1([H])[H]


 46 51  0  0  0  0  0  0  0  0999 V2000
   51.2908   -5.5846   -4.1926 C   0  0  0  0  0  0  0  0  0  0  0  0
   51.0315   -4.9149   -3.0462 C   0  0  0  0  0  0  0  0  0  0  0  0
   51.8049   -5.1187   -1.8943 C   0  0  0  0  0  0  0  0  0  0  0  0
   52.8497   -5.9967   -1.8706 C   0  0  0  0  0  0  0  0  0  0  0  0
   53.1013   -6.6813   -3.0731 C   0  0  0  0  0  0  0  0  0  0  0  0
   52.3426   -6.4771   -4.1942 C   0  0  0  0  0  0  0  0  0  0  0  0
   53.6688   -6.2905   -0.7353 N   0  0  0  0  0  0  0  0  0  0  0  0
   54.9928   -5.8931   -0.6575 C   0  0  0  0  0  0  0  0  0  0  0  0
   55.4522   -5.2410   -1.6863 O   0  0  0  0  0  0  0  0  0  0  0  0
   53.2287   -6.8647    0.0229 H   0  0  0  0  0  0  0  0  0  0  0  0
   55.9978   -6.0869    0.3964 C   0  0  0  0  0  0  0  0  0  0  0  0
   55.5223   -6.2125    1.8245 C   0  0  0  0  0  0  0  0  0  0  0  0
   56.0081   -4.8997    1.4034 C   0  0  0  0  0  0  0  0  0  0  0  0
   57.3491   -6.6455    0.1669 C   0  0  0  0  0  0  0  0  0  0  0  0
   57.8475   -7.2847    1.1686 O   0  0  0  0  0  0  0  0  0  0  0  0
   58.1044   -6.5554   -0.9930 N   0  0  0  0  0  0  0  0  0  0  0  0
   57.5795   -6.0910   -1.8119 H   0  0  0  0  0  0  0  0  0  0  0  0
   59.3905   -7.0215   -1.3186 C   0  0  0  0  0  0  0  0  0  0  0  0
   60.3459   -7.2281   -0.4643 C   0  0  0  0  0  0  0  0  0  0  0  0
   61.6919   -7.7146   -0.7915 C   0  0  0  0  0  0  0  0  0  0  0  0
   61.9649   -7.9548   -2.2105 C   0  0  0  0  0  0  0  0  0  0  0  0
   62.2556   -9.3368   -2.3478 F   0  0  0  0  0  0  0  0  0  0  0  0
   60.8504   -7.7026   -3.1096 C   0  0  0  0  0  0  0  0  0  0  0  0
   59.6681   -7.2801   -2.7507 C   0  0  0  0  0  0  0  0  0  0  0  0
   50.5836   -5.4469   -5.3715 O   0  0  0  0  0  0  0  0  0  0  0  0
   53.9154   -4.8171   -7.7945 C   0  0  0  0  0  0  0  0  0  0  0  0
   52.8109   -5.0021   -7.0067 C   0  0  0  0  0  0  0  0  0  0  0  0
   51.7532   -4.1146   -6.9983 C   0  0  0  0  0  0  0  0  0  0  0  0
   50.6553   -4.3356   -6.1926 C   0  0  0  0  0  0  0  0  0  0  0  0
   49.6447   -3.3999   -6.2496 C   0  0  0  0  0  0  0  0  0  0  0  0
   49.7521   -2.3027   -7.0823 C   0  0  0  0  0  0  0  0  0  0  0  0
   50.8417   -2.1323   -7.8474 N   0  0  0  0  0  0  0  0  0  0  0  0
   51.8596   -3.0222   -7.8270 C   0  0  0  0  0  0  0  0  0  0  0  0
   52.9798   -2.8244   -8.6336 C   0  0  0  0  0  0  0  0  0  0  0  0
   54.0365   -3.7024   -8.6479 C   0  0  0  0  0  0  0  0  0  0  0  0
   55.7056   -5.8892   -6.6163 C   0  0  0  0  0  0  0  0  0  0  0  0
   54.9415   -5.7183   -7.7750 O   0  0  0  0  0  0  0  0  0  0  0  0
   55.1593   -3.5660   -9.4100 O   0  0  0  0  0  0  0  0  0  0  0  0
   55.6224   -4.2058  -10.5215 C   0  0  0  0  0  0  0  0  0  0  0  0
   56.9980   -3.8802  -10.9973 C   0  0  0  0  0  0  0  0  0  0  0  0
   57.2882   -4.4534  -12.3705 C   0  0  0  0  0  0  0  0  0  0  0  0
   57.1393   -3.4712  -13.4156 N   0  0  0  0  0  0  0  0  0  0  0  0
   55.9065   -3.7013  -14.1078 C   0  0  0  0  0  0  0  0  0  0  0  0
   56.3171   -4.2856  -15.4229 C   0  0  0  0  0  0  0  0  0  0  0  0
   57.5989   -3.5273  -15.7343 C   0  0  0  0  0  0  0  0  0  0  0  0
   58.2243   -3.4800  -14.3504 C   0  0  0  0  0  0  0  0  0  0  0  0
 36 37  1  0  0  0
 37 26  1  0  0  0
 26 27  2  0  0  0
 27 28  1  0  0  0
 28 29  2  0  0  0
 29 25  1  0  0  0
 25  1  1  0  0  0
  1  2  2  0  0  0
  2  3  1  0  0  0
  3  4  2  0  0  0
  4  7  1  0  0  0
  7  8  1  0  0  0
  8  9  2  0  0  0
  8 11  1  0  0  0
 11 12  1  0  0  0
 12 13  1  0  0  0
 11 14  1  0  0  0
 14 15  2  0  0  0
 14 16  1  0  0  0
 16 18  1  0  0  0
 18 19  2  0  0  0
 19 20  1  0  0  0
 20 21  1  0  0  0
 21 22  1  0  0  0
 21 23  1  0  0  0
 23 24  2  0  0  0
  4  5  1  0  0  0
  5  6  2  0  0  0
 29 30  1  0  0  0
 30 31  2  0  0  0
 31 32  1  0  0  0
 32 33  2  0  0  0
 33 34  1  0  0  0
 34 35  2  0  0  0
 35 38  1  0  0  0
 38 39  1  0  0  0
 39 40  1  0  0  0
 40 41  1  0  0  0
 41 42  1  0  0  0
 42 43  1  0  0  0
 43 44  1  0  0  0
 44 45  1  0  0  0
 45 46  1  0  0  0
 35 26  1  0  0  0
 46 42  1  0  0  0
 33 28  1  0  0  0
  6  1  1  0  0  0
 13 11  1  0  0  0
 24 18  1  0  0  0
  7 10  1  0  0  0
 16 17  1  0  0  0
M  END
> <minimizedAffinity>
-8.76189

> <CNNscore>
0.2658396661

> <CNNaffinity>
7.5040388107

> <CNN_VS>
1.9948711395

> <CNNaffinity_variance>
0.0625375360

$$$$
[H]C1=C([H])C([H])(F)C([H])([H])C([H])=C1N([H])C(=O)C1(C(=O)N([H])c2c([H])c([H])c(Oc3c([H])c([H])nc4c([H])c(OC([H])([H])C([H])([H])C([H])([H])N5C([H])([H])C([H])([H])C([H])([H])C5([H])[H])c(OC([H])([H])[H])c([H])c34)c([H])c2[H])C([H])([H])C1([H])[H]


 46 51  0  0  0  0  0  0  0  0999 V2000
   56.0869   -5.8663   -5.3066 C   0  0  0  0  0  0  0  0  0  0  0  0
   55.9795   -5.1991   -4.1348 C   0  0  0  0  0  0  0  0  0  0  0  0
   55.5300   -5.8403   -2.9714 C   0  0  0  0  0  0  0  0  0  0  0  0
   55.1800   -7.1595   -2.9621 C   0  0  0  0  0  0  0  0  0  0  0  0
   55.2998   -7.8334   -4.1907 C   0  0  0  0  0  0  0  0  0  0  0  0
   55.7398   -7.2014   -5.3225 C   0  0  0  0  0  0  0  0  0  0  0  0
   54.6823   -7.8840   -1.8335 N   0  0  0  0  0  0  0  0  0  0  0  0
   53.4706   -7.5797   -1.2366 C   0  0  0  0  0  0  0  0  0  0  0  0
   52.8125   -6.5861   -1.7602 O   0  0  0  0  0  0  0  0  0  0  0  0
   55.3043   -8.6342   -1.4480 H   0  0  0  0  0  0  0  0  0  0  0  0
   52.7826   -8.1837   -0.0877 C   0  0  0  0  0  0  0  0  0  0  0  0
   52.9224   -7.5183    1.2611 C   0  0  0  0  0  0  0  0  0  0  0  0
   53.7915   -8.6636    0.9967 C   0  0  0  0  0  0  0  0  0  0  0  0
   51.6030   -9.0712   -0.1949 C   0  0  0  0  0  0  0  0  0  0  0  0
   51.6090   -9.8580   -1.2154 O   0  0  0  0  0  0  0  0  0  0  0  0
   50.5271   -9.1398    0.6778 N   0  0  0  0  0  0  0  0  0  0  0  0
   50.6442   -8.5216    1.5529 H   0  0  0  0  0  0  0  0  0  0  0  0
   49.3554   -9.9173    0.6699 C   0  0  0  0  0  0  0  0  0  0  0  0
   48.4789   -9.9331   -0.2875 C   0  0  0  0  0  0  0  0  0  0  0  0
   47.2527  -10.7402   -0.3078 C   0  0  0  0  0  0  0  0  0  0  0  0
   47.0053  -11.5694    0.8742 C   0  0  0  0  0  0  0  0  0  0  0  0
   46.9972  -12.9196    0.4381 F   0  0  0  0  0  0  0  0  0  0  0  0
   48.0276  -11.5021    1.9060 C   0  0  0  0  0  0  0  0  0  0  0  0
   49.1070  -10.7691    1.8563 C   0  0  0  0  0  0  0  0  0  0  0  0
   56.5195   -5.3168   -6.4981 O   0  0  0  0  0  0  0  0  0  0  0  0
   57.8652   -4.9280  -10.4232 C   0  0  0  0  0  0  0  0  0  0  0  0
   57.4005   -5.0464   -9.1406 C   0  0  0  0  0  0  0  0  0  0  0  0
   56.1067   -4.7145   -8.7908 C   0  0  0  0  0  0  0  0  0  0  0  0
   55.6733   -4.8494   -7.4880 C   0  0  0  0  0  0  0  0  0  0  0  0
   54.3660   -4.4975   -7.2287 C   0  0  0  0  0  0  0  0  0  0  0  0
   53.5508   -4.0347   -8.2436 C   0  0  0  0  0  0  0  0  0  0  0  0
   54.0200   -3.9212   -9.4961 N   0  0  0  0  0  0  0  0  0  0  0  0
   55.2948   -4.2537   -9.8006 C   0  0  0  0  0  0  0  0  0  0  0  0
   55.7577   -4.1298  -11.1101 C   0  0  0  0  0  0  0  0  0  0  0  0
   57.0435   -4.4576  -11.4667 C   0  0  0  0  0  0  0  0  0  0  0  0
   59.9495   -5.9254   -9.7883 C   0  0  0  0  0  0  0  0  0  0  0  0
   59.1522   -5.2671  -10.7299 O   0  0  0  0  0  0  0  0  0  0  0  0
   57.5579   -4.3576  -12.7259 O   0  0  0  0  0  0  0  0  0  0  0  0
   57.0639   -3.8879  -13.9068 C   0  0  0  0  0  0  0  0  0  0  0  0
   58.0358   -3.4516  -14.9508 C   0  0  0  0  0  0  0  0  0  0  0  0
   59.4301   -3.2406  -14.3942 C   0  0  0  0  0  0  0  0  0  0  0  0
   60.3292   -2.6774  -15.3707 N   0  0  0  0  0  0  0  0  0  0  0  0
   59.7804   -2.8638  -16.6807 C   0  0  0  0  0  0  0  0  0  0  0  0
   60.6184   -3.9441  -17.2892 C   0  0  0  0  0  0  0  0  0  0  0  0
   62.0028   -3.6368  -16.7379 C   0  0  0  0  0  0  0  0  0  0  0  0
   61.6429   -3.2452  -15.3147 C   0  0  0  0  0  0  0  0  0  0  0  0
 36 37  1  0  0  0
 37 26  1  0  0  0
 26 27  2  0  0  0
 27 28  1  0  0  0
 28 29  2  0  0  0
 29 25  1  0  0  0
 25  1  1  0  0  0
  1  2  2  0  0  0
  2  3  1  0  0  0
  3  4  2  0  0  0
  4  7  1  0  0  0
  7  8  1  0  0  0
  8  9  2  0  0  0
  8 11  1  0  0  0
 11 12  1  0  0  0
 12 13  1  0  0  0
 11 14  1  0  0  0
 14 15  2  0  0  0
 14 16  1  0  0  0
 16 18  1  0  0  0
 18 19  2  0  0  0
 19 20  1  0  0  0
 20 21  1  0  0  0
 21 22  1  0  0  0
 21 23  1  0  0  0
 23 24  2  0  0  0
  4  5  1  0  0  0
  5  6  2  0  0  0
 29 30  1  0  0  0
 30 31  2  0  0  0
 31 32  1  0  0  0
 32 33  2  0  0  0
 33 34  1  0  0  0
 34 35  2  0  0  0
 35 38  1  0  0  0
 38 39  1  0  0  0
 39 40  1  0  0  0
 40 41  1  0  0  0
 41 42  1  0  0  0
 42 43  1  0  0  0
 43 44  1  0  0  0
 44 45  1  0  0  0
 45 46  1  0  0  0
 35 26  1  0  0  0
 46 42  1  0  0  0
 33 28  1  0  0  0
  6  1  1  0  0  0
 13 11  1  0  0  0
 24 18  1  0  0  0
  7 10  1  0  0  0
 16 17  1  0  0  0
M  END
> <minimizedAffinity>
-9.25244

> <CNNscore>
0.2620361149

> <CNNaffinity>
6.5565299988

> <CNN_VS>
1.7180476189

> <CNNaffinity_variance>
0.0974718183

$$$$
[H]C1=C([H])C([H])(F)C([H])([H])C([H])=C1N([H])C(=O)C1(C(=O)N([H])c2c([H])c([H])c(Oc3c([H])c([H])nc4c([H])c(OC([H])([H])C([H])([H])C([H])([H])N5C([H])([H])C([H])([H])C([H])([H])C5([H])[H])c(OC([H])([H])[H])c([H])c34)c([H])c2[H])C([H])([H])C1([H])[H]


 46 51  0  0  0  0  0  0  0  0999 V2000
   55.8767   -5.6227   -6.0897 C   0  0  0  0  0  0  0  0  0  0  0  0
   55.9394   -4.7873   -5.0276 C   0  0  0  0  0  0  0  0  0  0  0  0
   55.4572   -5.1739   -3.7688 C   0  0  0  0  0  0  0  0  0  0  0  0
   54.9035   -6.4026   -3.5527 C   0  0  0  0  0  0  0  0  0  0  0  0
   54.8488   -7.2547   -4.6704 C   0  0  0  0  0  0  0  0  0  0  0  0
   55.3220   -6.8709   -5.8963 C   0  0  0  0  0  0  0  0  0  0  0  0
   54.3586   -6.8676   -2.3145 N   0  0  0  0  0  0  0  0  0  0  0  0
   55.1605   -7.2604   -1.2563 C   0  0  0  0  0  0  0  0  0  0  0  0
   56.4444   -7.1890   -1.4587 O   0  0  0  0  0  0  0  0  0  0  0  0
   53.3145   -6.9401   -2.2608 H   0  0  0  0  0  0  0  0  0  0  0  0
   54.8158   -7.7630    0.0804 C   0  0  0  0  0  0  0  0  0  0  0  0
   55.8196   -7.5809    1.1944 C   0  0  0  0  0  0  0  0  0  0  0  0
   55.7906   -8.8871    0.5388 C   0  0  0  0  0  0  0  0  0  0  0  0
   53.4320   -7.9860    0.5558 C   0  0  0  0  0  0  0  0  0  0  0  0
   53.1235   -7.3567    1.6371 O   0  0  0  0  0  0  0  0  0  0  0  0
   52.4618   -8.7787   -0.0394 N   0  0  0  0  0  0  0  0  0  0  0  0
   52.7670   -9.1916   -0.9871 H   0  0  0  0  0  0  0  0  0  0  0  0
   51.1375   -9.0801    0.3247 C   0  0  0  0  0  0  0  0  0  0  0  0
   50.1919   -8.2051    0.4848 C   0  0  0  0  0  0  0  0  0  0  0  0
   48.8061   -8.5071    0.8642 C   0  0  0  0  0  0  0  0  0  0  0  0
   48.4943   -9.9183    1.1029 C   0  0  0  0  0  0  0  0  0  0  0  0
   47.5145  -10.2929    0.1475 F   0  0  0  0  0  0  0  0  0  0  0  0
   49.6002  -10.8414    0.9053 C   0  0  0  0  0  0  0  0  0  0  0  0
   50.8124  -10.5073    0.5534 C   0  0  0  0  0  0  0  0  0  0  0  0
   56.3263   -5.3268   -7.3621 O   0  0  0  0  0  0  0  0  0  0  0  0
   57.8615   -4.6904  -11.1839 C   0  0  0  0  0  0  0  0  0  0  0  0
   57.3352   -4.8891   -9.9357 C   0  0  0  0  0  0  0  0  0  0  0  0
   56.0330   -4.5539   -9.6218 C   0  0  0  0  0  0  0  0  0  0  0  0
   55.5365   -4.7713   -8.3531 C   0  0  0  0  0  0  0  0  0  0  0  0
   54.2255   -4.4094   -8.1287 C   0  0  0  0  0  0  0  0  0  0  0  0
   53.4678   -3.8575   -9.1436 C   0  0  0  0  0  0  0  0  0  0  0  0
   53.9972   -3.6658  -10.3621 N   0  0  0  0  0  0  0  0  0  0  0  0
   55.2782   -4.0045  -10.6316 C   0  0  0  0  0  0  0  0  0  0  0  0
   55.8043   -3.7982  -11.9065 C   0  0  0  0  0  0  0  0  0  0  0  0
   57.0988   -4.1286  -12.2271 C   0  0  0  0  0  0  0  0  0  0  0  0
   59.9402   -4.2257  -12.2820 C   0  0  0  0  0  0  0  0  0  0  0  0
   59.1548   -5.0356  -11.4556 O   0  0  0  0  0  0  0  0  0  0  0  0
   57.6735   -3.9510  -13.4512 O   0  0  0  0  0  0  0  0  0  0  0  0
   57.1991   -3.5306  -14.6584 C   0  0  0  0  0  0  0  0  0  0  0  0
   56.5021   -4.5253  -15.5242 C   0  0  0  0  0  0  0  0  0  0  0  0
   56.5766   -4.1675  -16.9955 C   0  0  0  0  0  0  0  0  0  0  0  0
   56.4761   -2.7465  -17.2184 N   0  0  0  0  0  0  0  0  0  0  0  0
   55.1893   -2.4449  -17.7709 C   0  0  0  0  0  0  0  0  0  0  0  0
   55.4616   -2.1309  -19.2086 C   0  0  0  0  0  0  0  0  0  0  0  0
   56.7981   -1.4068  -19.1400 C   0  0  0  0  0  0  0  0  0  0  0  0
   57.5006   -2.2419  -18.0828 C   0  0  0  0  0  0  0  0  0  0  0  0
 36 37  1  0  0  0
 37 26  1  0  0  0
 26 27  2  0  0  0
 27 28  1  0  0  0
 28 29  2  0  0  0
 29 25  1  0  0  0
 25  1  1  0  0  0
  1  2  2  0  0  0
  2  3  1  0  0  0
  3  4  2  0  0  0
  4  7  1  0  0  0
  7  8  1  0  0  0
  8  9  2  0  0  0
  8 11  1  0  0  0
 11 12  1  0  0  0
 12 13  1  0  0  0
 11 14  1  0  0  0
 14 15  2  0  0  0
 14 16  1  0  0  0
 16 18  1  0  0  0
 18 19  2  0  0  0
 19 20  1  0  0  0
 20 21  1  0  0  0
 21 22  1  0  0  0
 21 23  1  0  0  0
 23 24  2  0  0  0
  4  5  1  0  0  0
  5  6  2  0  0  0
 29 30  1  0  0  0
 30 31  2  0  0  0
 31 32  1  0  0  0
 32 33  2  0  0  0
 33 34  1  0  0  0
 34 35  2  0  0  0
 35 38  1  0  0  0
 38 39  1  0  0  0
 39 40  1  0  0  0
 40 41  1  0  0  0
 41 42  1  0  0  0
 42 43  1  0  0  0
 43 44  1  0  0  0
 44 45  1  0  0  0
 45 46  1  0  0  0
 35 26  1  0  0  0
 46 42  1  0  0  0
 33 28  1  0  0  0
  6  1  1  0  0  0
 13 11  1  0  0  0
 24 18  1  0  0  0
  7 10  1  0  0  0
 16 17  1  0  0  0
M  END
> <minimizedAffinity>
-7.97872

> <CNNscore>
0.2564704120

> <CNNaffinity>
6.7348241806

> <CNN_VS>
1.7272831202

> <CNNaffinity_variance>
0.0548491888

$$$$
[H]C1=C([H])C([H])(F)C([H])([H])C([H])=C1N([H])C(=O)C1(C(=O)N([H])c2c([H])c([H])c(Oc3c([H])c([H])nc4c([H])c(OC([H])([H])C([H])([H])C([H])([H])N5C([H])([H])C([H])([H])C([H])([H])C5([H])[H])c(OC([H])([H])[H])c([H])c34)c([H])c2[H])C([H])([H])C1([H])[H]


 46 51  0  0  0  0  0  0  0  0999 V2000
   50.8765   -5.4924   -4.6793 C   0  0  0  0  0  0  0  0  0  0  0  0
   50.4431   -4.7574   -3.6296 C   0  0  0  0  0  0  0  0  0  0  0  0
   50.8914   -5.0162   -2.3262 C   0  0  0  0  0  0  0  0  0  0  0  0
   51.7800   -6.0153   -2.0522 C   0  0  0  0  0  0  0  0  0  0  0  0
   52.2173   -6.7661   -3.1581 C   0  0  0  0  0  0  0  0  0  0  0  0
   51.7760   -6.5076   -4.4279 C   0  0  0  0  0  0  0  0  0  0  0  0
   52.2648   -6.3696   -0.7538 N   0  0  0  0  0  0  0  0  0  0  0  0
   53.4654   -5.8904   -0.2580 C   0  0  0  0  0  0  0  0  0  0  0  0
   54.1335   -5.1020   -1.0496 O   0  0  0  0  0  0  0  0  0  0  0  0
   51.6848   -7.0506   -0.2078 H   0  0  0  0  0  0  0  0  0  0  0  0
   54.1408   -6.1237    1.0257 C   0  0  0  0  0  0  0  0  0  0  0  0
   53.4764   -7.0372    2.0285 C   0  0  0  0  0  0  0  0  0  0  0  0
   53.2937   -5.5999    2.2223 C   0  0  0  0  0  0  0  0  0  0  0  0
   55.5947   -5.9548    1.2453 C   0  0  0  0  0  0  0  0  0  0  0  0
   56.2555   -7.0548    1.3628 O   0  0  0  0  0  0  0  0  0  0  0  0
   56.2940   -4.7596    1.3263 N   0  0  0  0  0  0  0  0  0  0  0  0
   55.6871   -3.8926    1.1222 H   0  0  0  0  0  0  0  0  0  0  0  0
   57.6532   -4.4764    1.5493 C   0  0  0  0  0  0  0  0  0  0  0  0
   58.1172   -3.7974    2.5537 C   0  0  0  0  0  0  0  0  0  0  0  0
   59.5332   -3.4956    2.7976 C   0  0  0  0  0  0  0  0  0  0  0  0
   60.4811   -3.9896    1.7959 C   0  0  0  0  0  0  0  0  0  0  0  0
   61.3443   -4.9010    2.4572 F   0  0  0  0  0  0  0  0  0  0  0  0
   59.8917   -4.7409    0.6995 C   0  0  0  0  0  0  0  0  0  0  0  0
   58.6182   -4.9859    0.5471 C   0  0  0  0  0  0  0  0  0  0  0  0
   50.4898   -5.3083   -5.9928 O   0  0  0  0  0  0  0  0  0  0  0  0
   54.2818   -4.9582   -7.6859 C   0  0  0  0  0  0  0  0  0  0  0  0
   53.0299   -5.0504   -7.1391 C   0  0  0  0  0  0  0  0  0  0  0  0
   52.0738   -4.0698   -7.3145 C   0  0  0  0  0  0  0  0  0  0  0  0
   50.8217   -4.1987   -6.7498 C   0  0  0  0  0  0  0  0  0  0  0  0
   49.9288   -3.1737   -6.9784 C   0  0  0  0  0  0  0  0  0  0  0  0
   50.2965   -2.0813   -7.7400 C   0  0  0  0  0  0  0  0  0  0  0  0
   51.5280   -2.0025   -8.2680 N   0  0  0  0  0  0  0  0  0  0  0  0
   52.4393   -2.9821   -8.0725 C   0  0  0  0  0  0  0  0  0  0  0  0
   53.7114   -2.8784   -8.6343 C   0  0  0  0  0  0  0  0  0  0  0  0
   54.6686   -3.8493   -8.4646 C   0  0  0  0  0  0  0  0  0  0  0  0
   55.6409   -6.2553   -6.1983 C   0  0  0  0  0  0  0  0  0  0  0  0
   55.2003   -5.9498   -7.4900 O   0  0  0  0  0  0  0  0  0  0  0  0
   55.9290   -3.8075   -8.9841 O   0  0  0  0  0  0  0  0  0  0  0  0
   56.5404   -4.4557  -10.0161 C   0  0  0  0  0  0  0  0  0  0  0  0
   56.1466   -4.0895  -11.4074 C   0  0  0  0  0  0  0  0  0  0  0  0
   57.3231   -3.6165  -12.2384 C   0  0  0  0  0  0  0  0  0  0  0  0
   57.4543   -4.3546  -13.4701 N   0  0  0  0  0  0  0  0  0  0  0  0
   57.6506   -3.4365  -14.5521 C   0  0  0  0  0  0  0  0  0  0  0  0
   56.3480   -3.4399  -15.2891 C   0  0  0  0  0  0  0  0  0  0  0  0
   55.9111   -4.8931  -15.1788 C   0  0  0  0  0  0  0  0  0  0  0  0
   56.3227   -5.1880  -13.7462 C   0  0  0  0  0  0  0  0  0  0  0  0
 36 37  1  0  0  0
 37 26  1  0  0  0
 26 27  2  0  0  0
 27 28  1  0  0  0
 28 29  2  0  0  0
 29 25  1  0  0  0
 25  1  1  0  0  0
  1  2  2  0  0  0
  2  3  1  0  0  0
  3  4  2  0  0  0
  4  7  1  0  0  0
  7  8  1  0  0  0
  8  9  2  0  0  0
  8 11  1  0  0  0
 11 12  1  0  0  0
 12 13  1  0  0  0
 11 14  1  0  0  0
 14 15  2  0  0  0
 14 16  1  0  0  0
 16 18  1  0  0  0
 18 19  2  0  0  0
 19 20  1  0  0  0
 20 21  1  0  0  0
 21 22  1  0  0  0
 21 23  1  0  0  0
 23 24  2  0  0  0
  4  5  1  0  0  0
  5  6  2  0  0  0
 29 30  1  0  0  0
 30 31  2  0  0  0
 31 32  1  0  0  0
 32 33  2  0  0  0
 33 34  1  0  0  0
 34 35  2  0  0  0
 35 38  1  0  0  0
 38 39  1  0  0  0
 39 40  1  0  0  0
 40 41  1  0  0  0
 41 42  1  0  0  0
 42 43  1  0  0  0
 43 44  1  0  0  0
 44 45  1  0  0  0
 45 46  1  0  0  0
 35 26  1  0  0  0
 46 42  1  0  0  0
 33 28  1  0  0  0
  6  1  1  0  0  0
 13 11  1  0  0  0
 24 18  1  0  0  0
  7 10  1  0  0  0
 16 17  1  0  0  0
M  END
> <minimizedAffinity>
-9.46979

> <CNNscore>
0.2447297573

> <CNNaffinity>
7.2529144287

> <CNN_VS>
1.7750040293

> <CNNaffinity_variance>
0.0895734578

$$$$
[H]C1=C([H])C([H])(F)C([H])([H])C([H])=C1N([H])C(=O)C1(C(=O)N([H])c2c([H])c([H])c(Oc3c([H])c([H])nc4c([H])c(OC([H])([H])C([H])([H])C([H])([H])N5C([H])([H])C([H])([H])C([H])([H])C5([H])[H])c(OC([H])([H])[H])c([H])c34)c([H])c2[H])C([H])([H])C1([H])[H]


 46 51  0  0  0  0  0  0  0  0999 V2000
   51.4220   -3.3690   -8.1147 C   0  0  0  0  0  0  0  0  0  0  0  0
   52.0308   -4.5496   -8.3703 C   0  0  0  0  0  0  0  0  0  0  0  0
   53.3208   -4.5990   -8.9180 C   0  0  0  0  0  0  0  0  0  0  0  0
   54.0222   -3.4676   -9.2196 C   0  0  0  0  0  0  0  0  0  0  0  0
   53.3704   -2.2519   -8.9453 C   0  0  0  0  0  0  0  0  0  0  0  0
   52.1111   -2.2110   -8.4100 C   0  0  0  0  0  0  0  0  0  0  0  0
   55.3251   -3.4242   -9.8085 N   0  0  0  0  0  0  0  0  0  0  0  0
   56.2460   -4.4443   -9.6396 C   0  0  0  0  0  0  0  0  0  0  0  0
   55.8573   -5.4452   -8.9036 O   0  0  0  0  0  0  0  0  0  0  0  0
   55.5685   -2.5557  -10.3420 H   0  0  0  0  0  0  0  0  0  0  0  0
   57.6165   -4.6001  -10.1452 C   0  0  0  0  0  0  0  0  0  0  0  0
   58.1270   -3.5952  -11.1508 C   0  0  0  0  0  0  0  0  0  0  0  0
   57.6344   -4.8661  -11.6791 C   0  0  0  0  0  0  0  0  0  0  0  0
   58.6901   -5.3281   -9.4325 C   0  0  0  0  0  0  0  0  0  0  0  0
   58.7227   -5.1332   -8.1591 O   0  0  0  0  0  0  0  0  0  0  0  0
   59.6319   -6.1815   -9.9881 N   0  0  0  0  0  0  0  0  0  0  0  0
   59.4770   -6.3660  -11.0386 H   0  0  0  0  0  0  0  0  0  0  0  0
   60.6978   -6.9043   -9.4235 C   0  0  0  0  0  0  0  0  0  0  0  0
   60.8274   -8.1952   -9.4665 C   0  0  0  0  0  0  0  0  0  0  0  0
   61.9351   -8.9610   -8.8816 C   0  0  0  0  0  0  0  0  0  0  0  0
   62.9540   -8.1839   -8.1719 C   0  0  0  0  0  0  0  0  0  0  0  0
   64.1794   -8.3834   -8.8587 F   0  0  0  0  0  0  0  0  0  0  0  0
   62.7448   -6.7450   -8.1636 C   0  0  0  0  0  0  0  0  0  0  0  0
   61.7391   -6.1225   -8.7167 C   0  0  0  0  0  0  0  0  0  0  0  0
   50.1572   -3.2261   -7.5774 O   0  0  0  0  0  0  0  0  0  0  0  0
   52.3058   -5.9593   -5.2792 C   0  0  0  0  0  0  0  0  0  0  0  0
   51.5854   -5.0561   -6.0141 C   0  0  0  0  0  0  0  0  0  0  0  0
   50.5621   -4.3079   -5.4667 C   0  0  0  0  0  0  0  0  0  0  0  0
   49.8596   -3.4054   -6.2381 C   0  0  0  0  0  0  0  0  0  0  0  0
   48.8565   -2.6993   -5.6094 C   0  0  0  0  0  0  0  0  0  0  0  0
   48.5886   -2.9055   -4.2698 C   0  0  0  0  0  0  0  0  0  0  0  0
   49.3010   -3.7960   -3.5618 N   0  0  0  0  0  0  0  0  0  0  0  0
   50.2949   -4.5128   -4.1332 C   0  0  0  0  0  0  0  0  0  0  0  0
   51.0227   -5.4298   -3.3756 C   0  0  0  0  0  0  0  0  0  0  0  0
   52.0422   -6.1782   -3.9124 C   0  0  0  0  0  0  0  0  0  0  0  0
   54.6268   -6.2068   -5.8217 C   0  0  0  0  0  0  0  0  0  0  0  0
   53.3114   -6.6805   -5.8571 O   0  0  0  0  0  0  0  0  0  0  0  0
   52.7893   -7.0913   -3.2281 O   0  0  0  0  0  0  0  0  0  0  0  0
   53.1346   -7.2270   -1.9160 C   0  0  0  0  0  0  0  0  0  0  0  0
   52.4233   -8.2576   -1.1056 C   0  0  0  0  0  0  0  0  0  0  0  0
   51.5930   -7.6495    0.0077 C   0  0  0  0  0  0  0  0  0  0  0  0
   50.2381   -8.1426    0.0110 N   0  0  0  0  0  0  0  0  0  0  0  0
   49.7887   -8.2797    1.3642 C   0  0  0  0  0  0  0  0  0  0  0  0
   49.7809   -9.7559    1.6101 C   0  0  0  0  0  0  0  0  0  0  0  0
   49.3307  -10.3110    0.2669 C   0  0  0  0  0  0  0  0  0  0  0  0
   50.0964   -9.3937   -0.6716 C   0  0  0  0  0  0  0  0  0  0  0  0
 36 37  1  0  0  0
 37 26  1  0  0  0
 26 27  2  0  0  0
 27 28  1  0  0  0
 28 29  2  0  0  0
 29 25  1  0  0  0
 25  1  1  0  0  0
  1  2  2  0  0  0
  2  3  1  0  0  0
  3  4  2  0  0  0
  4  7  1  0  0  0
  7  8  1  0  0  0
  8  9  2  0  0  0
  8 11  1  0  0  0
 11 12  1  0  0  0
 12 13  1  0  0  0
 11 14  1  0  0  0
 14 15  2  0  0  0
 14 16  1  0  0  0
 16 18  1  0  0  0
 18 19  2  0  0  0
 19 20  1  0  0  0
 20 21  1  0  0  0
 21 22  1  0  0  0
 21 23  1  0  0  0
 23 24  2  0  0  0
  4  5  1  0  0  0
  5  6  2  0  0  0
 29 30  1  0  0  0
 30 31  2  0  0  0
 31 32  1  0  0  0
 32 33  2  0  0  0
 33 34  1  0  0  0
 34 35  2  0  0  0
 35 38  1  0  0  0
 38 39  1  0  0  0
 39 40  1  0  0  0
 40 41  1  0  0  0
 41 42  1  0  0  0
 42 43  1  0  0  0
 43 44  1  0  0  0
 44 45  1  0  0  0
 45 46  1  0  0  0
 35 26  1  0  0  0
 46 42  1  0  0  0
 33 28  1  0  0  0
  6  1  1  0  0  0
 13 11  1  0  0  0
 24 18  1  0  0  0
  7 10  1  0  0  0
 16 17  1  0  0  0
M  END
> <minimizedAffinity>
-8.82546

> <CNNscore>
0.2208409309

> <CNNaffinity>
7.1798200607

> <CNN_VS>
1.5855981112

> <CNNaffinity_variance>
0.0932138413

$$$$
[H]c1nc(Oc2c([H])c([H])c(S(=O)(=O)N3C([H])([H])C([H])([H])C([H])([H])C3([H])[H])c([H])c2[H])c([H])c([H])c1-c1nc(C(=O)N([H])C(=O)C([H])([H])OC([H])([H])[H])oc1[H]


 35 38  0  0  0  0  0  0  0  0999 V2000
   56.9246   -4.7625   -9.8913 C   0  0  0  0  0  0  0  0  0  0  0  0
   56.4421   -4.9012   -8.6106 C   0  0  0  0  0  0  0  0  0  0  0  0
   55.1484   -4.5748   -8.2947 C   0  0  0  0  0  0  0  0  0  0  0  0
   54.2495   -4.0821   -9.2623 C   0  0  0  0  0  0  0  0  0  0  0  0
   54.7688   -3.9662  -10.4914 N   0  0  0  0  0  0  0  0  0  0  0  0
   56.0323   -4.2793  -10.8252 C   0  0  0  0  0  0  0  0  0  0  0  0
   60.3217   -5.9251  -10.1639 C   0  0  0  0  0  0  0  0  0  0  0  0
   59.1576   -5.8211   -9.5023 N   0  0  0  0  0  0  0  0  0  0  0  0
   58.2928   -5.1025  -10.2483 C   0  0  0  0  0  0  0  0  0  0  0  0
   58.9933   -4.7797  -11.3899 C   0  0  0  0  0  0  0  0  0  0  0  0
   60.2109   -5.2938  -11.2997 O   0  0  0  0  0  0  0  0  0  0  0  0
   62.5984   -8.4763   -8.4281 C   0  0  0  0  0  0  0  0  0  0  0  0
   62.3980   -9.4773   -7.6814 O   0  0  0  0  0  0  0  0  0  0  0  0
   61.4931   -7.7498   -8.8918 N   0  0  0  0  0  0  0  0  0  0  0  0
   61.5457   -6.6183   -9.7327 C   0  0  0  0  0  0  0  0  0  0  0  0
   62.6760   -6.2086  -10.1118 O   0  0  0  0  0  0  0  0  0  0  0  0
   60.5193   -8.0621   -8.5974 H   0  0  0  0  0  0  0  0  0  0  0  0
   63.9938   -8.1102   -8.7841 C   0  0  0  0  0  0  0  0  0  0  0  0
   65.2355   -9.6339   -9.8999 C   0  0  0  0  0  0  0  0  0  0  0  0
   64.8259   -9.2301   -8.6252 O   0  0  0  0  0  0  0  0  0  0  0  0
   52.9816   -3.7808   -8.8699 O   0  0  0  0  0  0  0  0  0  0  0  0
   52.2686   -4.0289   -7.7565 C   0  0  0  0  0  0  0  0  0  0  0  0
   51.2588   -3.1068   -7.4208 C   0  0  0  0  0  0  0  0  0  0  0  0
   50.4724   -3.2600   -6.3100 C   0  0  0  0  0  0  0  0  0  0  0  0
   50.6379   -4.3326   -5.4668 C   0  0  0  0  0  0  0  0  0  0  0  0
   51.6235   -5.2325   -5.7946 C   0  0  0  0  0  0  0  0  0  0  0  0
   52.4287   -5.0922   -6.9157 C   0  0  0  0  0  0  0  0  0  0  0  0
   49.6626   -4.5527   -4.0600 S   0  0  0  0  0  0  0  0  0  0  0  0
   49.1865   -3.2010   -3.5481 O   0  0  0  0  0  0  0  0  0  0  0  0
   48.4048   -5.3414   -4.3471 O   0  0  0  0  0  0  0  0  0  0  0  0
   50.4719   -5.3231   -2.7690 N   0  0  0  0  0  0  0  0  0  0  0  0
   50.9411   -6.6368   -3.0817 C   0  0  0  0  0  0  0  0  0  0  0  0
   52.3090   -6.8009   -2.4757 C   0  0  0  0  0  0  0  0  0  0  0  0
   52.5948   -5.5409   -1.7265 C   0  0  0  0  0  0  0  0  0  0  0  0
   51.5775   -4.5650   -2.2430 C   0  0  0  0  0  0  0  0  0  0  0  0
 19 20  1  0  0  0
 20 18  1  0  0  0
 18 12  1  0  0  0
 12 13  2  0  0  0
 12 14  1  0  0  0
 14 15  1  0  0  0
 15 16  2  0  0  0
 15  7  1  0  0  0
  7  8  2  0  0  0
  8  9  1  0  0  0
  9 10  2  0  0  0
 10 11  1  0  0  0
  9  1  1  0  0  0
  1  2  2  0  0  0
  2  3  1  0  0  0
  3  4  2  0  0  0
  4 21  1  0  0  0
 21 22  1  0  0  0
 22 23  2  0  0  0
 23 24  1  0  0  0
 24 25  2  0  0  0
 25 26  1  0  0  0
 26 27  2  0  0  0
 25 28  1  0  0  0
 28 29  2  0  0  0
 28 30  2  0  0  0
 28 31  1  0  0  0
 31 32  1  0  0  0
 32 33  1  0  0  0
 33 34  1  0  0  0
 34 35  1  0  0  0
  4  5  1  0  0  0
  5  6  2  0  0  0
 11  7  1  0  0  0
  6  1  1  0  0  0
 27 22  1  0  0  0
 35 31  1  0  0  0
 14 17  1  0  0  0
M  END
> <minimizedAffinity>
-7.01681

> <CNNscore>
0.5641791224

> <CNNaffinity>
6.8549690247

> <CNN_VS>
3.8674304485

> <CNNaffinity_variance>
0.3870027363

$$$$
[H]c1nc(Oc2c([H])c([H])c(S(=O)(=O)N3C([H])([H])C([H])([H])C([H])([H])C3([H])[H])c([H])c2[H])c([H])c([H])c1-c1nc(C(=O)N([H])C(=O)C([H])([H])OC([H])([H])[H])oc1[H]


 35 38  0  0  0  0  0  0  0  0999 V2000
   57.1508   -4.9742   -9.3185 C   0  0  0  0  0  0  0  0  0  0  0  0
   57.9239   -5.3074   -8.2306 C   0  0  0  0  0  0  0  0  0  0  0  0
   59.2283   -5.7050   -8.3752 C   0  0  0  0  0  0  0  0  0  0  0  0
   59.8417   -5.7925   -9.6413 C   0  0  0  0  0  0  0  0  0  0  0  0
   59.0465   -5.4577  -10.6656 N   0  0  0  0  0  0  0  0  0  0  0  0
   57.7665   -5.0654  -10.5492 C   0  0  0  0  0  0  0  0  0  0  0  0
   53.7373   -4.2817   -8.4053 C   0  0  0  0  0  0  0  0  0  0  0  0
   54.9304   -4.8527   -8.1727 N   0  0  0  0  0  0  0  0  0  0  0  0
   55.7659   -4.5501   -9.1882 C   0  0  0  0  0  0  0  0  0  0  0  0
   55.0173   -3.7699  -10.0421 C   0  0  0  0  0  0  0  0  0  0  0  0
   53.8015   -3.6321   -9.5343 O   0  0  0  0  0  0  0  0  0  0  0  0
   50.4666   -3.2133   -6.7124 C   0  0  0  0  0  0  0  0  0  0  0  0
   49.7601   -2.1644   -6.7346 O   0  0  0  0  0  0  0  0  0  0  0  0
   51.6392   -3.2520   -7.4792 N   0  0  0  0  0  0  0  0  0  0  0  0
   52.5290   -4.3431   -7.5679 C   0  0  0  0  0  0  0  0  0  0  0  0
   52.2648   -5.3839   -6.9076 O   0  0  0  0  0  0  0  0  0  0  0  0
   51.8997   -2.3950   -8.0538 H   0  0  0  0  0  0  0  0  0  0  0  0
   50.0275   -4.3607   -5.8767 C   0  0  0  0  0  0  0  0  0  0  0  0
   49.3337   -4.7949   -3.7699 C   0  0  0  0  0  0  0  0  0  0  0  0
   50.2628   -4.0704   -4.5231 O   0  0  0  0  0  0  0  0  0  0  0  0
   61.1405   -6.1953   -9.7016 O   0  0  0  0  0  0  0  0  0  0  0  0
   61.8865   -6.7915  -10.6491 C   0  0  0  0  0  0  0  0  0  0  0  0
   62.2482   -6.0144  -11.7661 C   0  0  0  0  0  0  0  0  0  0  0  0
   63.0052   -6.5187  -12.7900 C   0  0  0  0  0  0  0  0  0  0  0  0
   63.4488   -7.8193  -12.7695 C   0  0  0  0  0  0  0  0  0  0  0  0
   63.0957   -8.5777  -11.6791 C   0  0  0  0  0  0  0  0  0  0  0  0
   62.3296   -8.0824  -10.6338 C   0  0  0  0  0  0  0  0  0  0  0  0
   64.4042   -8.4830  -14.0446 S   0  0  0  0  0  0  0  0  0  0  0  0
   65.5459   -7.5339  -14.3788 O   0  0  0  0  0  0  0  0  0  0  0  0
   65.0639   -9.7861  -13.6533 O   0  0  0  0  0  0  0  0  0  0  0  0
   63.5375   -8.7563  -15.4900 N   0  0  0  0  0  0  0  0  0  0  0  0
   63.6549   -7.6982  -16.4442 C   0  0  0  0  0  0  0  0  0  0  0  0
   63.8006   -8.3144  -17.8096 C   0  0  0  0  0  0  0  0  0  0  0  0
   63.6908   -9.7920  -17.6219 C   0  0  0  0  0  0  0  0  0  0  0  0
   63.8790   -9.9920  -16.1459 C   0  0  0  0  0  0  0  0  0  0  0  0
 19 20  1  0  0  0
 20 18  1  0  0  0
 18 12  1  0  0  0
 12 13  2  0  0  0
 12 14  1  0  0  0
 14 15  1  0  0  0
 15 16  2  0  0  0
 15  7  1  0  0  0
  7  8  2  0  0  0
  8  9  1  0  0  0
  9 10  2  0  0  0
 10 11  1  0  0  0
  9  1  1  0  0  0
  1  2  2  0  0  0
  2  3  1  0  0  0
  3  4  2  0  0  0
  4 21  1  0  0  0
 21 22  1  0  0  0
 22 23  2  0  0  0
 23 24  1  0  0  0
 24 25  2  0  0  0
 25 26  1  0  0  0
 26 27  2  0  0  0
 25 28  1  0  0  0
 28 29  2  0  0  0
 28 30  2  0  0  0
 28 31  1  0  0  0
 31 32  1  0  0  0
 32 33  1  0  0  0
 33 34  1  0  0  0
 34 35  1  0  0  0
  4  5  1  0  0  0
  5  6  2  0  0  0
 11  7  1  0  0  0
  6  1  1  0  0  0
 27 22  1  0  0  0
 35 31  1  0  0  0
 14 17  1  0  0  0
M  END
> <minimizedAffinity>
-6.77528

> <CNNscore>
0.5323394537

> <CNNaffinity>
5.9596304893

> <CNN_VS>
3.1725463867

> <CNNaffinity_variance>
0.3492829204

$$$$
[H]c1nc(Oc2c([H])c([H])c(S(=O)(=O)N3C([H])([H])C([H])([H])C([H])([H])C3([H])[H])c([H])c2[H])c([H])c([H])c1-c1nc(C(=O)N([H])C(=O)C([H])([H])OC([H])([H])[H])oc1[H]


 35 38  0  0  0  0  0  0  0  0999 V2000
   56.0778   -4.6809   -8.9076 C   0  0  0  0  0  0  0  0  0  0  0  0
   56.5384   -4.7030  -10.2036 C   0  0  0  0  0  0  0  0  0  0  0  0
   57.8284   -5.0628  -10.4979 C   0  0  0  0  0  0  0  0  0  0  0  0
   58.7456   -5.4271   -9.4914 C   0  0  0  0  0  0  0  0  0  0  0  0
   58.2473   -5.3888   -8.2489 N   0  0  0  0  0  0  0  0  0  0  0  0
   56.9879   -5.0399   -7.9356 C   0  0  0  0  0  0  0  0  0  0  0  0
   52.7685   -4.2063   -7.5700 C   0  0  0  0  0  0  0  0  0  0  0  0
   53.9736   -4.7990   -7.5599 N   0  0  0  0  0  0  0  0  0  0  0  0
   54.7141   -4.3026   -8.5729 C   0  0  0  0  0  0  0  0  0  0  0  0
   53.8958   -3.3833   -9.1922 C   0  0  0  0  0  0  0  0  0  0  0  0
   52.7332   -3.3554   -8.5578 O   0  0  0  0  0  0  0  0  0  0  0  0
   49.6466   -3.5193   -5.4518 C   0  0  0  0  0  0  0  0  0  0  0  0
   48.9230   -2.5026   -5.2459 O   0  0  0  0  0  0  0  0  0  0  0  0
   50.7454   -3.4007   -6.3139 N   0  0  0  0  0  0  0  0  0  0  0  0
   51.6423   -4.4359   -6.6515 C   0  0  0  0  0  0  0  0  0  0  0  0
   51.4569   -5.5751   -6.1446 O   0  0  0  0  0  0  0  0  0  0  0  0
   50.9380   -2.4565   -6.7654 H   0  0  0  0  0  0  0  0  0  0  0  0
   49.3048   -4.7967   -4.7742 C   0  0  0  0  0  0  0  0  0  0  0  0
   50.4781   -5.0781   -2.8630 C   0  0  0  0  0  0  0  0  0  0  0  0
   49.2739   -4.5952   -3.3848 O   0  0  0  0  0  0  0  0  0  0  0  0
   60.0084   -5.7717   -9.8644 O   0  0  0  0  0  0  0  0  0  0  0  0
   60.8542   -6.7493   -9.4923 C   0  0  0  0  0  0  0  0  0  0  0  0
   61.9704   -6.3745   -8.7202 C   0  0  0  0  0  0  0  0  0  0  0  0
   62.8957   -7.2865   -8.2867 C   0  0  0  0  0  0  0  0  0  0  0  0
   62.7718   -8.6210   -8.5905 C   0  0  0  0  0  0  0  0  0  0  0  0
   61.6822   -8.9868   -9.3440 C   0  0  0  0  0  0  0  0  0  0  0  0
   60.7360   -8.0759   -9.7911 C   0  0  0  0  0  0  0  0  0  0  0  0
   63.9212   -9.7936   -8.0585 S   0  0  0  0  0  0  0  0  0  0  0  0
   64.4673  -10.5579   -9.2558 O   0  0  0  0  0  0  0  0  0  0  0  0
   65.1264   -9.1624   -7.3986 O   0  0  0  0  0  0  0  0  0  0  0  0
   63.2831  -10.9471   -6.9734 N   0  0  0  0  0  0  0  0  0  0  0  0
   62.5728  -10.3752   -5.8724 C   0  0  0  0  0  0  0  0  0  0  0  0
   61.3454  -11.2101   -5.6240 C   0  0  0  0  0  0  0  0  0  0  0  0
   61.4042  -12.3482   -6.5893 C   0  0  0  0  0  0  0  0  0  0  0  0
   62.4293  -11.9226   -7.6003 C   0  0  0  0  0  0  0  0  0  0  0  0
 19 20  1  0  0  0
 20 18  1  0  0  0
 18 12  1  0  0  0
 12 13  2  0  0  0
 12 14  1  0  0  0
 14 15  1  0  0  0
 15 16  2  0  0  0
 15  7  1  0  0  0
  7  8  2  0  0  0
  8  9  1  0  0  0
  9 10  2  0  0  0
 10 11  1  0  0  0
  9  1  1  0  0  0
  1  2  2  0  0  0
  2  3  1  0  0  0
  3  4  2  0  0  0
  4 21  1  0  0  0
 21 22  1  0  0  0
 22 23  2  0  0  0
 23 24  1  0  0  0
 24 25  2  0  0  0
 25 26  1  0  0  0
 26 27  2  0  0  0
 25 28  1  0  0  0
 28 29  2  0  0  0
 28 30  2  0  0  0
 28 31  1  0  0  0
 31 32  1  0  0  0
 32 33  1  0  0  0
 33 34  1  0  0  0
 34 35  1  0  0  0
  4  5  1  0  0  0
  5  6  2  0  0  0
 11  7  1  0  0  0
  6  1  1  0  0  0
 27 22  1  0  0  0
 35 31  1  0  0  0
 14 17  1  0  0  0
M  END
> <minimizedAffinity>
-7.78568

> <CNNscore>
0.3470575213

> <CNNaffinity>
6.0454964638

> <CNN_VS>
2.0981349945

> <CNNaffinity_variance>
0.1249588132

$$$$
[H]c1nc(Oc2c([H])c([H])c(S(=O)(=O)N3C([H])([H])C([H])([H])C([H])([H])C3([H])[H])c([H])c2[H])c([H])c([H])c1-c1nc(C(=O)N([H])C(=O)C([H])([H])OC([H])([H])[H])oc1[H]


 35 38  0  0  0  0  0  0  0  0999 V2000
   56.2361   -4.5378   -9.4894 C   0  0  0  0  0  0  0  0  0  0  0  0
   56.9888   -4.9618   -8.4189 C   0  0  0  0  0  0  0  0  0  0  0  0
   58.2685   -5.4260   -8.5838 C   0  0  0  0  0  0  0  0  0  0  0  0
   58.8763   -5.4925   -9.8539 C   0  0  0  0  0  0  0  0  0  0  0  0
   58.1015   -5.0685  -10.8607 N   0  0  0  0  0  0  0  0  0  0  0  0
   56.8458   -4.6097  -10.7243 C   0  0  0  0  0  0  0  0  0  0  0  0
   52.9288   -3.5470   -8.4670 C   0  0  0  0  0  0  0  0  0  0  0  0
   54.1233   -4.1090   -8.2204 N   0  0  0  0  0  0  0  0  0  0  0  0
   54.8775   -4.0420   -9.3374 C   0  0  0  0  0  0  0  0  0  0  0  0
   54.0785   -3.4128  -10.2669 C   0  0  0  0  0  0  0  0  0  0  0  0
   52.9132   -3.1313   -9.7030 O   0  0  0  0  0  0  0  0  0  0  0  0
   50.4550   -4.3212   -5.6411 C   0  0  0  0  0  0  0  0  0  0  0  0
   50.3242   -5.2696   -4.8144 O   0  0  0  0  0  0  0  0  0  0  0  0
   51.5085   -4.3726   -6.5641 N   0  0  0  0  0  0  0  0  0  0  0  0
   51.7940   -3.3972   -7.5424 C   0  0  0  0  0  0  0  0  0  0  0  0
   51.0487   -2.3828   -7.6091 O   0  0  0  0  0  0  0  0  0  0  0  0
   52.1636   -5.2110   -6.5420 H   0  0  0  0  0  0  0  0  0  0  0  0
   49.4896   -3.1924   -5.6018 C   0  0  0  0  0  0  0  0  0  0  0  0
   47.5804   -2.6317   -4.5299 C   0  0  0  0  0  0  0  0  0  0  0  0
   48.8636   -3.1560   -4.3454 O   0  0  0  0  0  0  0  0  0  0  0  0
   60.1501   -5.9653   -9.9348 O   0  0  0  0  0  0  0  0  0  0  0  0
   60.8327   -6.9175   -9.2738 C   0  0  0  0  0  0  0  0  0  0  0  0
   60.7987   -8.2202   -9.8068 C   0  0  0  0  0  0  0  0  0  0  0  0
   61.4570   -9.2662   -9.2165 C   0  0  0  0  0  0  0  0  0  0  0  0
   62.1867   -9.0858   -8.0661 C   0  0  0  0  0  0  0  0  0  0  0  0
   62.2199   -7.8141   -7.5459 C   0  0  0  0  0  0  0  0  0  0  0  0
   61.5589   -6.7438   -8.1311 C   0  0  0  0  0  0  0  0  0  0  0  0
   63.0268  -10.3841   -7.2994 S   0  0  0  0  0  0  0  0  0  0  0  0
   64.1702  -10.8521   -8.1878 O   0  0  0  0  0  0  0  0  0  0  0  0
   63.6724   -9.9651   -5.9978 O   0  0  0  0  0  0  0  0  0  0  0  0
   62.0501  -11.7468   -6.9763 N   0  0  0  0  0  0  0  0  0  0  0  0
   62.7180  -12.7768   -6.2436 C   0  0  0  0  0  0  0  0  0  0  0  0
   61.7552  -13.3245   -5.2246 C   0  0  0  0  0  0  0  0  0  0  0  0
   60.4593  -12.6142   -5.4408 C   0  0  0  0  0  0  0  0  0  0  0  0
   60.8235  -11.4316   -6.2910 C   0  0  0  0  0  0  0  0  0  0  0  0
 19 20  1  0  0  0
 20 18  1  0  0  0
 18 12  1  0  0  0
 12 13  2  0  0  0
 12 14  1  0  0  0
 14 15  1  0  0  0
 15 16  2  0  0  0
 15  7  1  0  0  0
  7  8  2  0  0  0
  8  9  1  0  0  0
  9 10  2  0  0  0
 10 11  1  0  0  0
  9  1  1  0  0  0
  1  2  2  0  0  0
  2  3  1  0  0  0
  3  4  2  0  0  0
  4 21  1  0  0  0
 21 22  1  0  0  0
 22 23  2  0  0  0
 23 24  1  0  0  0
 24 25  2  0  0  0
 25 26  1  0  0  0
 26 27  2  0  0  0
 25 28  1  0  0  0
 28 29  2  0  0  0
 28 30  2  0  0  0
 28 31  1  0  0  0
 31 32  1  0  0  0
 32 33  1  0  0  0
 33 34  1  0  0  0
 34 35  1  0  0  0
  4  5  1  0  0  0
  5  6  2  0  0  0
 11  7  1  0  0  0
  6  1  1  0  0  0
 27 22  1  0  0  0
 35 31  1  0  0  0
 14 17  1  0  0  0
M  END
> <minimizedAffinity>
-8.16762

> <CNNscore>
0.3448379636

> <CNNaffinity>
6.0212483406

> <CNN_VS>
2.0763549805

> <CNNaffinity_variance>
0.0596937723

$$$$
[H]c1nc(Oc2c([H])c([H])c(S(=O)(=O)N3C([H])([H])C([H])([H])C([H])([H])C3([H])[H])c([H])c2[H])c([H])c([H])c1-c1nc(C(=O)N([H])C(=O)C([H])([H])OC([H])([H])[H])oc1[H]


 35 38  0  0  0  0  0  0  0  0999 V2000
   56.9337   -4.8612   -9.2438 C   0  0  0  0  0  0  0  0  0  0  0  0
   57.4414   -4.9229  -10.5207 C   0  0  0  0  0  0  0  0  0  0  0  0
   58.7267   -5.3364  -10.7600 C   0  0  0  0  0  0  0  0  0  0  0  0
   59.5907   -5.7181   -9.7137 C   0  0  0  0  0  0  0  0  0  0  0  0
   59.0480   -5.6398   -8.4918 N   0  0  0  0  0  0  0  0  0  0  0  0
   57.7922   -5.2380   -8.2323 C   0  0  0  0  0  0  0  0  0  0  0  0
   53.6082   -4.2160   -8.0229 C   0  0  0  0  0  0  0  0  0  0  0  0
   54.7946   -4.8408   -7.9469 N   0  0  0  0  0  0  0  0  0  0  0  0
   55.5740   -4.4258   -8.9673 C   0  0  0  0  0  0  0  0  0  0  0  0
   54.7987   -3.5216   -9.6599 C   0  0  0  0  0  0  0  0  0  0  0  0
   53.6223   -3.4239   -9.0588 O   0  0  0  0  0  0  0  0  0  0  0  0
   50.2785   -3.4525   -6.2807 C   0  0  0  0  0  0  0  0  0  0  0  0
   49.4237   -2.5248   -6.3730 O   0  0  0  0  0  0  0  0  0  0  0  0
   51.4153   -3.4049   -7.0992 N   0  0  0  0  0  0  0  0  0  0  0  0
   52.4535   -4.3597   -7.1224 C   0  0  0  0  0  0  0  0  0  0  0  0
   52.3708   -5.3501   -6.3469 O   0  0  0  0  0  0  0  0  0  0  0  0
   51.5248   -2.5865   -7.7706 H   0  0  0  0  0  0  0  0  0  0  0  0
   50.0451   -4.5540   -5.3112 C   0  0  0  0  0  0  0  0  0  0  0  0
   49.7305   -4.9433   -3.1071 C   0  0  0  0  0  0  0  0  0  0  0  0
   49.4793   -4.0314   -4.1371 O   0  0  0  0  0  0  0  0  0  0  0  0
   60.8524   -6.1168  -10.0328 O   0  0  0  0  0  0  0  0  0  0  0  0
   61.5360   -7.2632   -9.8655 C   0  0  0  0  0  0  0  0  0  0  0  0
   62.6079   -7.5068  -10.7454 C   0  0  0  0  0  0  0  0  0  0  0  0
   63.3717   -8.6408  -10.6666 C   0  0  0  0  0  0  0  0  0  0  0  0
   63.1211   -9.5995   -9.7143 C   0  0  0  0  0  0  0  0  0  0  0  0
   62.0748   -9.3616   -8.8555 C   0  0  0  0  0  0  0  0  0  0  0  0
   61.2914   -8.2184   -8.9217 C   0  0  0  0  0  0  0  0  0  0  0  0
   64.0660  -11.0385   -9.5902 S   0  0  0  0  0  0  0  0  0  0  0  0
   65.3708  -10.8639  -10.3536 O   0  0  0  0  0  0  0  0  0  0  0  0
   64.4696  -11.3429   -8.1651 O   0  0  0  0  0  0  0  0  0  0  0  0
   63.2979  -12.4284  -10.2176 N   0  0  0  0  0  0  0  0  0  0  0  0
   62.5281  -13.1495   -9.2527 C   0  0  0  0  0  0  0  0  0  0  0  0
   61.2516  -13.5964   -9.9130 C   0  0  0  0  0  0  0  0  0  0  0  0
   61.3384  -13.1642  -11.3399 C   0  0  0  0  0  0  0  0  0  0  0  0
   62.4561  -12.1619  -11.3551 C   0  0  0  0  0  0  0  0  0  0  0  0
 19 20  1  0  0  0
 20 18  1  0  0  0
 18 12  1  0  0  0
 12 13  2  0  0  0
 12 14  1  0  0  0
 14 15  1  0  0  0
 15 16  2  0  0  0
 15  7  1  0  0  0
  7  8  2  0  0  0
  8  9  1  0  0  0
  9 10  2  0  0  0
 10 11  1  0  0  0
  9  1  1  0  0  0
  1  2  2  0  0  0
  2  3  1  0  0  0
  3  4  2  0  0  0
  4 21  1  0  0  0
 21 22  1  0  0  0
 22 23  2  0  0  0
 23 24  1  0  0  0
 24 25  2  0  0  0
 25 26  1  0  0  0
 26 27  2  0  0  0
 25 28  1  0  0  0
 28 29  2  0  0  0
 28 30  2  0  0  0
 28 31  1  0  0  0
 31 32  1  0  0  0
 32 33  1  0  0  0
 33 34  1  0  0  0
 34 35  1  0  0  0
  4  5  1  0  0  0
  5  6  2  0  0  0
 11  7  1  0  0  0
  6  1  1  0  0  0
 27 22  1  0  0  0
 35 31  1  0  0  0
 14 17  1  0  0  0
M  END
> <minimizedAffinity>
-7.68882

> <CNNscore>
0.3352376521

> <CNNaffinity>
5.7789549828

> <CNN_VS>
1.9373233318

> <CNNaffinity_variance>
0.1927488893

$$$$
[H]c1nc(Oc2c([H])c([H])c(S(=O)(=O)N3C([H])([H])C([H])([H])C([H])([H])C3([H])[H])c([H])c2[H])c([H])c([H])c1-c1nc(C(=O)N([H])C(=O)C([H])([H])OC([H])([H])[H])oc1[H]


 35 38  0  0  0  0  0  0  0  0999 V2000
   59.0313   -5.7555   -9.4061 C   0  0  0  0  0  0  0  0  0  0  0  0
   58.4304   -5.3592  -10.5783 C   0  0  0  0  0  0  0  0  0  0  0  0
   57.2856   -4.6045  -10.5754 C   0  0  0  0  0  0  0  0  0  0  0  0
   56.6677   -4.1975   -9.3755 C   0  0  0  0  0  0  0  0  0  0  0  0
   57.2920   -4.6094   -8.2645 N   0  0  0  0  0  0  0  0  0  0  0  0
   58.4138   -5.3489   -8.2419 C   0  0  0  0  0  0  0  0  0  0  0  0
   61.7009   -8.1385   -9.8066 C   0  0  0  0  0  0  0  0  0  0  0  0
   60.4669   -7.6880  -10.0860 N   0  0  0  0  0  0  0  0  0  0  0  0
   60.2453   -6.5559   -9.3860 C   0  0  0  0  0  0  0  0  0  0  0  0
   61.4055   -6.3479   -8.6725 C   0  0  0  0  0  0  0  0  0  0  0  0
   62.2568   -7.3231   -8.9539 O   0  0  0  0  0  0  0  0  0  0  0  0
   62.2849  -11.7980  -10.7925 C   0  0  0  0  0  0  0  0  0  0  0  0
   61.5998  -12.8577  -10.7068 O   0  0  0  0  0  0  0  0  0  0  0  0
   61.7368  -10.6008  -10.3119 N   0  0  0  0  0  0  0  0  0  0  0  0
   62.3655   -9.3383  -10.3391 C   0  0  0  0  0  0  0  0  0  0  0  0
   63.5217   -9.2580  -10.8349 O   0  0  0  0  0  0  0  0  0  0  0  0
   60.7616  -10.6226   -9.8865 H   0  0  0  0  0  0  0  0  0  0  0  0
   63.6404  -11.8627  -11.3977 C   0  0  0  0  0  0  0  0  0  0  0  0
   65.0036  -12.9108   -9.9308 C   0  0  0  0  0  0  0  0  0  0  0  0
   64.2342  -13.0958  -11.0838 O   0  0  0  0  0  0  0  0  0  0  0  0
   55.5333   -3.4497   -9.4562 O   0  0  0  0  0  0  0  0  0  0  0  0
   54.3178   -3.5389   -8.8870 C   0  0  0  0  0  0  0  0  0  0  0  0
   54.0553   -4.6816   -8.1073 C   0  0  0  0  0  0  0  0  0  0  0  0
   52.8525   -4.8762   -7.4820 C   0  0  0  0  0  0  0  0  0  0  0  0
   51.8397   -3.9536   -7.5905 C   0  0  0  0  0  0  0  0  0  0  0  0
   52.0961   -2.8382   -8.3515 C   0  0  0  0  0  0  0  0  0  0  0  0
   53.3086   -2.6258   -8.9914 C   0  0  0  0  0  0  0  0  0  0  0  0
   50.3135   -4.1709   -6.8142 S   0  0  0  0  0  0  0  0  0  0  0  0
   49.3495   -3.0819   -7.2620 O   0  0  0  0  0  0  0  0  0  0  0  0
   49.6528   -5.4766   -7.1954 O   0  0  0  0  0  0  0  0  0  0  0  0
   50.3876   -4.1078   -5.1096 N   0  0  0  0  0  0  0  0  0  0  0  0
   49.1485   -3.7561   -4.4891 C   0  0  0  0  0  0  0  0  0  0  0  0
   48.9769   -4.6178   -3.2672 C   0  0  0  0  0  0  0  0  0  0  0  0
   50.2135   -5.4479   -3.1565 C   0  0  0  0  0  0  0  0  0  0  0  0
   50.8630   -5.3249   -4.5045 C   0  0  0  0  0  0  0  0  0  0  0  0
 19 20  1  0  0  0
 20 18  1  0  0  0
 18 12  1  0  0  0
 12 13  2  0  0  0
 12 14  1  0  0  0
 14 15  1  0  0  0
 15 16  2  0  0  0
 15  7  1  0  0  0
  7  8  2  0  0  0
  8  9  1  0  0  0
  9 10  2  0  0  0
 10 11  1  0  0  0
  9  1  1  0  0  0
  1  2  2  0  0  0
  2  3  1  0  0  0
  3  4  2  0  0  0
  4 21  1  0  0  0
 21 22  1  0  0  0
 22 23  2  0  0  0
 23 24  1  0  0  0
 24 25  2  0  0  0
 25 26  1  0  0  0
 26 27  2  0  0  0
 25 28  1  0  0  0
 28 29  2  0  0  0
 28 30  2  0  0  0
 28 31  1  0  0  0
 31 32  1  0  0  0
 32 33  1  0  0  0
 33 34  1  0  0  0
 34 35  1  0  0  0
  4  5  1  0  0  0
  5  6  2  0  0  0
 11  7  1  0  0  0
  6  1  1  0  0  0
 27 22  1  0  0  0
 35 31  1  0  0  0
 14 17  1  0  0  0
M  END
> <minimizedAffinity>
-8.85468

> <CNNscore>
0.3225097656

> <CNNaffinity>
5.8483266830

> <CNN_VS>
1.8861424923

> <CNNaffinity_variance>
0.1362614036

$$$$
[H]c1nc(Oc2c([H])c([H])c(S(=O)(=O)N3C([H])([H])C([H])([H])C([H])([H])C3([H])[H])c([H])c2[H])c([H])c([H])c1-c1nc(C(=O)N([H])C(=O)C([H])([H])OC([H])([H])[H])oc1[H]


 35 38  0  0  0  0  0  0  0  0999 V2000
   57.0295   -4.8432   -9.2341 C   0  0  0  0  0  0  0  0  0  0  0  0
   57.7752   -5.0161  -10.3770 C   0  0  0  0  0  0  0  0  0  0  0  0
   59.0746   -5.4507  -10.3240 C   0  0  0  0  0  0  0  0  0  0  0  0
   59.7108   -5.7416   -9.1002 C   0  0  0  0  0  0  0  0  0  0  0  0
   58.9418   -5.5569   -8.0194 N   0  0  0  0  0  0  0  0  0  0  0  0
   57.6672   -5.1322   -8.0459 C   0  0  0  0  0  0  0  0  0  0  0  0
   53.5797   -3.9724   -8.6804 C   0  0  0  0  0  0  0  0  0  0  0  0
   54.7386   -4.5218   -8.2819 N   0  0  0  0  0  0  0  0  0  0  0  0
   55.6502   -4.3834   -9.2671 C   0  0  0  0  0  0  0  0  0  0  0  0
   54.9832   -3.7244  -10.2767 C   0  0  0  0  0  0  0  0  0  0  0  0
   53.7390   -3.4953   -9.8836 O   0  0  0  0  0  0  0  0  0  0  0  0
   50.9032   -4.7093   -6.0350 C   0  0  0  0  0  0  0  0  0  0  0  0
   50.8269   -5.4977   -5.0489 O   0  0  0  0  0  0  0  0  0  0  0  0
   52.0710   -4.7110   -6.8100 N   0  0  0  0  0  0  0  0  0  0  0  0
   52.3150   -3.8925   -7.9328 C   0  0  0  0  0  0  0  0  0  0  0  0
   51.4170   -3.0816   -8.2866 O   0  0  0  0  0  0  0  0  0  0  0  0
   52.8560   -5.3792   -6.5456 H   0  0  0  0  0  0  0  0  0  0  0  0
   49.7552   -3.8142   -6.3328 C   0  0  0  0  0  0  0  0  0  0  0  0
   48.4612   -2.7321   -4.8284 C   0  0  0  0  0  0  0  0  0  0  0  0
   49.7337   -2.7579   -5.4078 O   0  0  0  0  0  0  0  0  0  0  0  0
   61.0030   -6.1683   -9.1311 O   0  0  0  0  0  0  0  0  0  0  0  0
   61.6060   -7.2756   -9.6000 C   0  0  0  0  0  0  0  0  0  0  0  0
   62.9441   -7.1501  -10.0198 C   0  0  0  0  0  0  0  0  0  0  0  0
   63.6551   -8.2112  -10.5140 C   0  0  0  0  0  0  0  0  0  0  0  0
   63.0856   -9.4574  -10.6220 C   0  0  0  0  0  0  0  0  0  0  0  0
   61.7795   -9.5797  -10.2122 C   0  0  0  0  0  0  0  0  0  0  0  0
   61.0453   -8.5153   -9.7094 C   0  0  0  0  0  0  0  0  0  0  0  0
   63.9560  -10.8134  -11.2406 S   0  0  0  0  0  0  0  0  0  0  0  0
   65.4219  -10.7064  -10.8466 O   0  0  0  0  0  0  0  0  0  0  0  0
   63.4755  -12.1228  -10.6567 O   0  0  0  0  0  0  0  0  0  0  0  0
   63.9010  -10.9551  -12.9412 N   0  0  0  0  0  0  0  0  0  0  0  0
   64.5980   -9.9150  -13.6315 C   0  0  0  0  0  0  0  0  0  0  0  0
   65.3340  -10.5344  -14.7890 C   0  0  0  0  0  0  0  0  0  0  0  0
   64.9782  -11.9849  -14.7906 C   0  0  0  0  0  0  0  0  0  0  0  0
   64.3811  -12.2204  -13.4334 C   0  0  0  0  0  0  0  0  0  0  0  0
 19 20  1  0  0  0
 20 18  1  0  0  0
 18 12  1  0  0  0
 12 13  2  0  0  0
 12 14  1  0  0  0
 14 15  1  0  0  0
 15 16  2  0  0  0
 15  7  1  0  0  0
  7  8  2  0  0  0
  8  9  1  0  0  0
  9 10  2  0  0  0
 10 11  1  0  0  0
  9  1  1  0  0  0
  1  2  2  0  0  0
  2  3  1  0  0  0
  3  4  2  0  0  0
  4 21  1  0  0  0
 21 22  1  0  0  0
 22 23  2  0  0  0
 23 24  1  0  0  0
 24 25  2  0  0  0
 25 26  1  0  0  0
 26 27  2  0  0  0
 25 28  1  0  0  0
 28 29  2  0  0  0
 28 30  2  0  0  0
 28 31  1  0  0  0
 31 32  1  0  0  0
 32 33  1  0  0  0
 33 34  1  0  0  0
 34 35  1  0  0  0
  4  5  1  0  0  0
  5  6  2  0  0  0
 11  7  1  0  0  0
  6  1  1  0  0  0
 27 22  1  0  0  0
 35 31  1  0  0  0
 14 17  1  0  0  0
M  END
> <minimizedAffinity>
-6.85905

> <CNNscore>
0.3141704500

> <CNNaffinity>
5.6443443298

> <CNN_VS>
1.7732862234

> <CNNaffinity_variance>
0.2241648436

$$$$
[H]c1nc(Oc2c([H])c([H])c(S(=O)(=O)N3C([H])([H])C([H])([H])C([H])([H])C3([H])[H])c([H])c2[H])c([H])c([H])c1-c1nc(C(=O)N([H])C(=O)C([H])([H])OC([H])([H])[H])oc1[H]


 35 38  0  0  0  0  0  0  0  0999 V2000
   57.6353   -5.0421   -9.5317 C   0  0  0  0  0  0  0  0  0  0  0  0
   58.3542   -5.4719   -8.4404 C   0  0  0  0  0  0  0  0  0  0  0  0
   59.6495   -5.9047   -8.5628 C   0  0  0  0  0  0  0  0  0  0  0  0
   60.3087   -5.9316   -9.8085 C   0  0  0  0  0  0  0  0  0  0  0  0
   59.5653   -5.5036  -10.8371 N   0  0  0  0  0  0  0  0  0  0  0  0
   58.2952   -5.0751  -10.7422 C   0  0  0  0  0  0  0  0  0  0  0  0
   54.2463   -4.2046   -8.6493 C   0  0  0  0  0  0  0  0  0  0  0  0
   55.4295   -4.7805   -8.3811 N   0  0  0  0  0  0  0  0  0  0  0  0
   56.2609   -4.5792   -9.4247 C   0  0  0  0  0  0  0  0  0  0  0  0
   55.5202   -3.8546  -10.3328 C   0  0  0  0  0  0  0  0  0  0  0  0
   54.3127   -3.6500   -9.8278 O   0  0  0  0  0  0  0  0  0  0  0  0
   51.8070   -5.0732   -5.8209 C   0  0  0  0  0  0  0  0  0  0  0  0
   51.8247   -5.8925   -4.8574 O   0  0  0  0  0  0  0  0  0  0  0  0
   52.9077   -5.0287   -6.6875 N   0  0  0  0  0  0  0  0  0  0  0  0
   53.0455   -4.1720   -7.7998 C   0  0  0  0  0  0  0  0  0  0  0  0
   52.1080   -3.3684   -8.0538 O   0  0  0  0  0  0  0  0  0  0  0  0
   53.7228   -5.6891   -6.5088 H   0  0  0  0  0  0  0  0  0  0  0  0
   50.6236   -4.1920   -5.9963 C   0  0  0  0  0  0  0  0  0  0  0  0
   49.8578   -6.0914   -6.9527 C   0  0  0  0  0  0  0  0  0  0  0  0
   49.8144   -4.6956   -7.0276 O   0  0  0  0  0  0  0  0  0  0  0  0
   61.5950   -6.3749   -9.8475 O   0  0  0  0  0  0  0  0  0  0  0  0
   62.1763   -7.5652   -9.6131 C   0  0  0  0  0  0  0  0  0  0  0  0
   61.6427   -8.6839  -10.2811 C   0  0  0  0  0  0  0  0  0  0  0  0
   62.1555   -9.9432  -10.1171 C   0  0  0  0  0  0  0  0  0  0  0  0
   63.2248  -10.1702   -9.2840 C   0  0  0  0  0  0  0  0  0  0  0  0
   63.7455   -9.0781   -8.6321 C   0  0  0  0  0  0  0  0  0  0  0  0
   63.2380   -7.7962   -8.7870 C   0  0  0  0  0  0  0  0  0  0  0  0
   63.8928  -11.7454   -9.0570 S   0  0  0  0  0  0  0  0  0  0  0  0
   63.3467  -12.6926  -10.1155 O   0  0  0  0  0  0  0  0  0  0  0  0
   65.3945  -11.7663   -9.2327 O   0  0  0  0  0  0  0  0  0  0  0  0
   63.5411  -12.4347   -7.5351 N   0  0  0  0  0  0  0  0  0  0  0  0
   62.2375  -12.1155   -7.0425 C   0  0  0  0  0  0  0  0  0  0  0  0
   61.6598  -13.3544   -6.4126 C   0  0  0  0  0  0  0  0  0  0  0  0
   62.7186  -14.4046   -6.4939 C   0  0  0  0  0  0  0  0  0  0  0  0
   63.6974  -13.8657   -7.4967 C   0  0  0  0  0  0  0  0  0  0  0  0
 19 20  1  0  0  0
 20 18  1  0  0  0
 18 12  1  0  0  0
 12 13  2  0  0  0
 12 14  1  0  0  0
 14 15  1  0  0  0
 15 16  2  0  0  0
 15  7  1  0  0  0
  7  8  2  0  0  0
  8  9  1  0  0  0
  9 10  2  0  0  0
 10 11  1  0  0  0
  9  1  1  0  0  0
  1  2  2  0  0  0
  2  3  1  0  0  0
  3  4  2  0  0  0
  4 21  1  0  0  0
 21 22  1  0  0  0
 22 23  2  0  0  0
 23 24  1  0  0  0
 24 25  2  0  0  0
 25 26  1  0  0  0
 26 27  2  0  0  0
 25 28  1  0  0  0
 28 29  2  0  0  0
 28 30  2  0  0  0
 28 31  1  0  0  0
 31 32  1  0  0  0
 32 33  1  0  0  0
 33 34  1  0  0  0
 34 35  1  0  0  0
  4  5  1  0  0  0
  5  6  2  0  0  0
 11  7  1  0  0  0
  6  1  1  0  0  0
 27 22  1  0  0  0
 35 31  1  0  0  0
 14 17  1  0  0  0
M  END
> <minimizedAffinity>
-6.56056

> <CNNscore>
0.2870044410

> <CNNaffinity>
5.7620515823

> <CNN_VS>
1.6537344456

> <CNNaffinity_variance>
0.0783969015

$$$$
[H]c1nc(Oc2c([H])c([H])c(S(=O)(=O)N3C([H])([H])C([H])([H])C([H])([H])C3([H])[H])c([H])c2[H])c([H])c([H])c1-c1nc(C(=O)N([H])C(=O)C([H])([H])OC([H])([H])[H])oc1[H]


 35 38  0  0  0  0  0  0  0  0999 V2000
   58.9612   -5.6536   -9.4563 C   0  0  0  0  0  0  0  0  0  0  0  0
   58.3355   -5.2596  -10.6163 C   0  0  0  0  0  0  0  0  0  0  0  0
   57.1693   -4.5388  -10.5903 C   0  0  0  0  0  0  0  0  0  0  0  0
   56.5538   -4.1659   -9.3783 C   0  0  0  0  0  0  0  0  0  0  0  0
   57.2027   -4.5740   -8.2800 N   0  0  0  0  0  0  0  0  0  0  0  0
   58.3457   -5.2806   -8.2799 C   0  0  0  0  0  0  0  0  0  0  0  0
   61.7477   -7.8711   -8.9235 C   0  0  0  0  0  0  0  0  0  0  0  0
   60.5292   -7.4060   -8.6030 N   0  0  0  0  0  0  0  0  0  0  0  0
   60.1982   -6.4182   -9.4607 C   0  0  0  0  0  0  0  0  0  0  0  0
   61.2764   -6.3122  -10.3118 C   0  0  0  0  0  0  0  0  0  0  0  0
   62.1880   -7.2045   -9.9544 O   0  0  0  0  0  0  0  0  0  0  0  0
   64.4013  -10.5771   -8.3401 C   0  0  0  0  0  0  0  0  0  0  0  0
   65.3751  -11.0216   -9.0139 O   0  0  0  0  0  0  0  0  0  0  0  0
   63.6174   -9.5511   -8.8853 N   0  0  0  0  0  0  0  0  0  0  0  0
   62.5061   -8.9448   -8.2628 C   0  0  0  0  0  0  0  0  0  0  0  0
   62.1724   -9.3463   -7.1154 O   0  0  0  0  0  0  0  0  0  0  0  0
   63.8650   -9.1807   -9.8518 H   0  0  0  0  0  0  0  0  0  0  0  0
   64.1268  -11.1580   -7.0003 C   0  0  0  0  0  0  0  0  0  0  0  0
   64.6214  -10.5050   -4.8938 C   0  0  0  0  0  0  0  0  0  0  0  0
   65.1824  -10.8438   -6.1292 O   0  0  0  0  0  0  0  0  0  0  0  0
   55.3973   -3.4506   -9.4362 O   0  0  0  0  0  0  0  0  0  0  0  0
   54.2108   -3.5482   -8.8098 C   0  0  0  0  0  0  0  0  0  0  0  0
   53.2892   -2.5031   -9.0120 C   0  0  0  0  0  0  0  0  0  0  0  0
   52.0522   -2.4987   -8.4241 C   0  0  0  0  0  0  0  0  0  0  0  0
   51.6541   -3.5263   -7.6028 C   0  0  0  0  0  0  0  0  0  0  0  0
   52.5538   -4.5464   -7.4056 C   0  0  0  0  0  0  0  0  0  0  0  0
   53.8104   -4.5661   -7.9933 C   0  0  0  0  0  0  0  0  0  0  0  0
   50.1021   -3.5488   -6.8480 S   0  0  0  0  0  0  0  0  0  0  0  0
   49.8044   -2.1841   -6.2442 O   0  0  0  0  0  0  0  0  0  0  0  0
   48.9847   -3.8066   -7.8335 O   0  0  0  0  0  0  0  0  0  0  0  0
   49.9586   -4.6969   -5.5924 N   0  0  0  0  0  0  0  0  0  0  0  0
   51.1296   -5.4944   -5.4007 C   0  0  0  0  0  0  0  0  0  0  0  0
   51.3460   -5.6582   -3.9203 C   0  0  0  0  0  0  0  0  0  0  0  0
   50.2009   -4.9763   -3.2463 C   0  0  0  0  0  0  0  0  0  0  0  0
   49.5925   -4.1247   -4.3227 C   0  0  0  0  0  0  0  0  0  0  0  0
 19 20  1  0  0  0
 20 18  1  0  0  0
 18 12  1  0  0  0
 12 13  2  0  0  0
 12 14  1  0  0  0
 14 15  1  0  0  0
 15 16  2  0  0  0
 15  7  1  0  0  0
  7  8  2  0  0  0
  8  9  1  0  0  0
  9 10  2  0  0  0
 10 11  1  0  0  0
  9  1  1  0  0  0
  1  2  2  0  0  0
  2  3  1  0  0  0
  3  4  2  0  0  0
  4 21  1  0  0  0
 21 22  1  0  0  0
 22 23  2  0  0  0
 23 24  1  0  0  0
 24 25  2  0  0  0
 25 26  1  0  0  0
 26 27  2  0  0  0
 25 28  1  0  0  0
 28 29  2  0  0  0
 28 30  2  0  0  0
 28 31  1  0  0  0
 31 32  1  0  0  0
 32 33  1  0  0  0
 33 34  1  0  0  0
 34 35  1  0  0  0
  4  5  1  0  0  0
  5  6  2  0  0  0
 11  7  1  0  0  0
  6  1  1  0  0  0
 27 22  1  0  0  0
 35 31  1  0  0  0
 14 17  1  0  0  0
M  END
> <minimizedAffinity>
-7.78171

> <CNNscore>
0.2742701769

> <CNNaffinity>
5.8558564186

> <CNN_VS>
1.6060867310

> <CNNaffinity_variance>
0.1386402845

$$$$
[H]c1nc(N([H])c2c([H])c([H])c(OC([H])([H])[H])c(Cl)c2[H])nc(N([H])c2c([H])c([H])c([H])c([H])c2S(=O)(=O)N(C([H])([H])[H])C([H])([H])[H])c1Cl


 32 34  0  0  0  0  0  0  0  0999 V2000
   53.4636   -3.0531   -8.7895 C   0  0  0  0  0  0  0  0  0  0  0  0
   52.4296   -2.2135   -8.8582 N   0  0  0  0  0  0  0  0  0  0  0  0
   51.2787   -2.3972   -8.1924 C   0  0  0  0  0  0  0  0  0  0  0  0
   51.1748   -3.5171   -7.4000 C   0  0  0  0  0  0  0  0  0  0  0  0
   49.7030   -3.7783   -6.5313 Cl  0  0  0  0  0  0  0  0  0  0  0  0
   52.2337   -4.4483   -7.2822 C   0  0  0  0  0  0  0  0  0  0  0  0
   53.3041   -4.1373   -7.9944 N   0  0  0  0  0  0  0  0  0  0  0  0
   54.6791   -2.8524   -9.4970 N   0  0  0  0  0  0  0  0  0  0  0  0
   54.7326   -1.9282  -10.0746 H   0  0  0  0  0  0  0  0  0  0  0  0
   58.1054   -5.2634   -9.8383 C   0  0  0  0  0  0  0  0  0  0  0  0
   57.3621   -5.2832   -8.6865 C   0  0  0  0  0  0  0  0  0  0  0  0
   56.2155   -4.4739   -8.5579 C   0  0  0  0  0  0  0  0  0  0  0  0
   55.8066   -3.6536   -9.5569 C   0  0  0  0  0  0  0  0  0  0  0  0
   56.5791   -3.6471  -10.7251 C   0  0  0  0  0  0  0  0  0  0  0  0
   57.7028   -4.4347  -10.8618 C   0  0  0  0  0  0  0  0  0  0  0  0
   58.6346   -4.3838  -12.3557 Cl  0  0  0  0  0  0  0  0  0  0  0  0
   60.2641   -6.1950   -9.0933 C   0  0  0  0  0  0  0  0  0  0  0  0
   59.2352   -6.0254  -10.0348 O   0  0  0  0  0  0  0  0  0  0  0  0
   52.0226   -5.5463   -6.4489 N   0  0  0  0  0  0  0  0  0  0  0  0
   51.9674   -6.4796   -6.9065 H   0  0  0  0  0  0  0  0  0  0  0  0
   51.8818   -5.5238   -5.0478 C   0  0  0  0  0  0  0  0  0  0  0  0
   50.7311   -5.2368   -4.3547 C   0  0  0  0  0  0  0  0  0  0  0  0
   50.6819   -5.2249   -2.9540 C   0  0  0  0  0  0  0  0  0  0  0  0
   51.8038   -5.5046   -2.2227 C   0  0  0  0  0  0  0  0  0  0  0  0
   52.9808   -5.7980   -2.8799 C   0  0  0  0  0  0  0  0  0  0  0  0
   53.0129   -5.8064   -4.2426 C   0  0  0  0  0  0  0  0  0  0  0  0
   54.5109   -6.1739   -5.0456 S   0  0  0  0  0  0  0  0  0  0  0  0
   55.2345   -4.9110   -5.4639 O   0  0  0  0  0  0  0  0  0  0  0  0
   54.3047   -7.1074   -6.2374 O   0  0  0  0  0  0  0  0  0  0  0  0
   55.6271   -7.0200   -4.0397 N   0  0  0  0  0  0  0  0  0  0  0  0
   56.9905   -6.9054   -4.4243 C   0  0  0  0  0  0  0  0  0  0  0  0
   55.1655   -8.3346   -3.7410 C   0  0  0  0  0  0  0  0  0  0  0  0
 17 18  1  0  0  0
 18 10  1  0  0  0
 10 11  2  0  0  0
 11 12  1  0  0  0
 12 13  2  0  0  0
 13  8  1  0  0  0
  8  1  1  0  0  0
  1  2  2  0  0  0
  2  3  1  0  0  0
  3  4  2  0  0  0
  4  5  1  0  0  0
  4  6  1  0  0  0
  6 19  1  0  0  0
 19 21  1  0  0  0
 21 22  2  0  0  0
 22 23  1  0  0  0
 23 24  2  0  0  0
 24 25  1  0  0  0
 25 26  2  0  0  0
 26 27  1  0  0  0
 27 28  2  0  0  0
 27 29  2  0  0  0
 27 30  1  0  0  0
 30 31  1  0  0  0
 30 32  1  0  0  0
  6  7  2  0  0  0
 13 14  1  0  0  0
 14 15  2  0  0  0
 15 16  1  0  0  0
 15 10  1  0  0  0
  7  1  1  0  0  0
 26 21  1  0  0  0
  8  9  1  0  0  0
 19 20  1  0  0  0
M  END
> <minimizedAffinity>
-9.58777

> <CNNscore>
0.9770731926

> <CNNaffinity>
7.9074029922

> <CNN_VS>
7.7261114120

> <CNNaffinity_variance>
0.1495112032

$$$$
[H]c1nc(N([H])c2c([H])c([H])c(OC([H])([H])[H])c(Cl)c2[H])nc(N([H])c2c([H])c([H])c([H])c([H])c2S(=O)(=O)N(C([H])([H])[H])C([H])([H])[H])c1Cl


 32 34  0  0  0  0  0  0  0  0999 V2000
   52.7134   -3.2555   -8.3944 C   0  0  0  0  0  0  0  0  0  0  0  0
   51.6383   -2.4731   -8.2891 N   0  0  0  0  0  0  0  0  0  0  0  0
   50.7070   -2.6160   -7.3331 C   0  0  0  0  0  0  0  0  0  0  0  0
   50.8846   -3.6292   -6.4194 C   0  0  0  0  0  0  0  0  0  0  0  0
   49.6998   -3.8358   -5.1775 Cl  0  0  0  0  0  0  0  0  0  0  0  0
   52.0024   -4.4951   -6.4738 C   0  0  0  0  0  0  0  0  0  0  0  0
   52.8354   -4.2351   -7.4679 N   0  0  0  0  0  0  0  0  0  0  0  0
   53.6953   -3.0985   -9.4090 N   0  0  0  0  0  0  0  0  0  0  0  0
   53.4297   -2.4050  -10.2085 H   0  0  0  0  0  0  0  0  0  0  0  0
   57.4490   -4.9167   -9.9318 C   0  0  0  0  0  0  0  0  0  0  0  0
   56.9250   -4.7695   -8.6735 C   0  0  0  0  0  0  0  0  0  0  0  0
   55.6707   -4.1551   -8.4854 C   0  0  0  0  0  0  0  0  0  0  0  0
   54.9408   -3.6910   -9.5293 C   0  0  0  0  0  0  0  0  0  0  0  0
   55.4929   -3.8502  -10.8065 C   0  0  0  0  0  0  0  0  0  0  0  0
   56.7193   -4.4497  -11.0024 C   0  0  0  0  0  0  0  0  0  0  0  0
   57.3624   -4.6219  -12.6331 Cl  0  0  0  0  0  0  0  0  0  0  0  0
   59.5796   -5.9288   -9.2114 C   0  0  0  0  0  0  0  0  0  0  0  0
   58.6660   -5.5058  -10.1914 O   0  0  0  0  0  0  0  0  0  0  0  0
   52.0852   -5.4856   -5.4957 N   0  0  0  0  0  0  0  0  0  0  0  0
   51.2175   -5.6876   -4.9571 H   0  0  0  0  0  0  0  0  0  0  0  0
   53.2225   -6.2471   -5.1642 C   0  0  0  0  0  0  0  0  0  0  0  0
   54.2292   -6.6141   -6.0237 C   0  0  0  0  0  0  0  0  0  0  0  0
   55.3237   -7.3865   -5.6112 C   0  0  0  0  0  0  0  0  0  0  0  0
   55.4210   -7.8055   -4.3125 C   0  0  0  0  0  0  0  0  0  0  0  0
   54.4309   -7.4588   -3.4165 C   0  0  0  0  0  0  0  0  0  0  0  0
   53.3729   -6.7066   -3.8324 C   0  0  0  0  0  0  0  0  0  0  0  0
   52.1361   -6.2884   -2.6837 S   0  0  0  0  0  0  0  0  0  0  0  0
   50.7533   -6.5168   -3.2576 O   0  0  0  0  0  0  0  0  0  0  0  0
   52.2893   -4.8551   -2.1775 O   0  0  0  0  0  0  0  0  0  0  0  0
   52.1925   -7.2464   -1.2509 N   0  0  0  0  0  0  0  0  0  0  0  0
   50.9506   -7.8146   -0.8575 C   0  0  0  0  0  0  0  0  0  0  0  0
   52.9444   -6.6043   -0.2250 C   0  0  0  0  0  0  0  0  0  0  0  0
 17 18  1  0  0  0
 18 10  1  0  0  0
 10 11  2  0  0  0
 11 12  1  0  0  0
 12 13  2  0  0  0
 13  8  1  0  0  0
  8  1  1  0  0  0
  1  2  2  0  0  0
  2  3  1  0  0  0
  3  4  2  0  0  0
  4  5  1  0  0  0
  4  6  1  0  0  0
  6 19  1  0  0  0
 19 21  1  0  0  0
 21 22  2  0  0  0
 22 23  1  0  0  0
 23 24  2  0  0  0
 24 25  1  0  0  0
 25 26  2  0  0  0
 26 27  1  0  0  0
 27 28  2  0  0  0
 27 29  2  0  0  0
 27 30  1  0  0  0
 30 31  1  0  0  0
 30 32  1  0  0  0
  6  7  2  0  0  0
 13 14  1  0  0  0
 14 15  2  0  0  0
 15 16  1  0  0  0
 15 10  1  0  0  0
  7  1  1  0  0  0
 26 21  1  0  0  0
  8  9  1  0  0  0
 19 20  1  0  0  0
M  END
> <minimizedAffinity>
-8.99798

> <CNNscore>
0.9116124511

> <CNNaffinity>
7.8781595230

> <CNN_VS>
7.1818284988

> <CNNaffinity_variance>
0.0463015810

$$$$
[H]c1nc(N([H])c2c([H])c([H])c(OC([H])([H])[H])c(Cl)c2[H])nc(N([H])c2c([H])c([H])c([H])c([H])c2S(=O)(=O)N(C([H])([H])[H])C([H])([H])[H])c1Cl


 32 34  0  0  0  0  0  0  0  0999 V2000
   55.2678   -3.9172   -9.9141 C   0  0  0  0  0  0  0  0  0  0  0  0
   55.8090   -4.5477   -8.8707 N   0  0  0  0  0  0  0  0  0  0  0  0
   57.0500   -5.0590   -8.8744 C   0  0  0  0  0  0  0  0  0  0  0  0
   57.7922   -4.9172  -10.0242 C   0  0  0  0  0  0  0  0  0  0  0  0
   59.3941   -5.5667  -10.0562 Cl  0  0  0  0  0  0  0  0  0  0  0  0
   57.2788   -4.2594  -11.1670 C   0  0  0  0  0  0  0  0  0  0  0  0
   56.0446   -3.8077  -11.0176 N   0  0  0  0  0  0  0  0  0  0  0  0
   53.9534   -3.3784   -9.9032 N   0  0  0  0  0  0  0  0  0  0  0  0
   53.6482   -2.8808  -10.8251 H   0  0  0  0  0  0  0  0  0  0  0  0
   51.0935   -3.5914   -6.8300 C   0  0  0  0  0  0  0  0  0  0  0  0
   51.1170   -2.5116   -7.6744 C   0  0  0  0  0  0  0  0  0  0  0  0
   52.0757   -2.4258   -8.7038 C   0  0  0  0  0  0  0  0  0  0  0  0
   53.0016   -3.3969   -8.8979 C   0  0  0  0  0  0  0  0  0  0  0  0
   52.9617   -4.4914   -8.0251 C   0  0  0  0  0  0  0  0  0  0  0  0
   52.0282   -4.5858   -7.0144 C   0  0  0  0  0  0  0  0  0  0  0  0
   52.0274   -5.9873   -5.9476 Cl  0  0  0  0  0  0  0  0  0  0  0  0
   49.1219   -2.8673   -5.5372 C   0  0  0  0  0  0  0  0  0  0  0  0
   50.1878   -3.7428   -5.8041 O   0  0  0  0  0  0  0  0  0  0  0  0
   58.1182   -4.1690  -12.2769 N   0  0  0  0  0  0  0  0  0  0  0  0
   59.1289   -4.3610  -12.1184 H   0  0  0  0  0  0  0  0  0  0  0  0
   57.7381   -3.8497  -13.5948 C   0  0  0  0  0  0  0  0  0  0  0  0
   56.4607   -3.8826  -14.0990 C   0  0  0  0  0  0  0  0  0  0  0  0
   56.1715   -3.5596  -15.4319 C   0  0  0  0  0  0  0  0  0  0  0  0
   57.1760   -3.1952  -16.2862 C   0  0  0  0  0  0  0  0  0  0  0  0
   58.4737   -3.1496  -15.8199 C   0  0  0  0  0  0  0  0  0  0  0  0
   58.7392   -3.4658  -14.5209 C   0  0  0  0  0  0  0  0  0  0  0  0
   60.3844   -3.4055  -13.9608 S   0  0  0  0  0  0  0  0  0  0  0  0
   60.7536   -4.6640  -13.2035 O   0  0  0  0  0  0  0  0  0  0  0  0
   60.6545   -2.1600  -13.1181 O   0  0  0  0  0  0  0  0  0  0  0  0
   61.5318   -3.2994  -15.2438 N   0  0  0  0  0  0  0  0  0  0  0  0
   61.6685   -4.4768  -16.0278 C   0  0  0  0  0  0  0  0  0  0  0  0
   62.7433   -2.6880  -14.8093 C   0  0  0  0  0  0  0  0  0  0  0  0
 17 18  1  0  0  0
 18 10  1  0  0  0
 10 11  2  0  0  0
 11 12  1  0  0  0
 12 13  2  0  0  0
 13  8  1  0  0  0
  8  1  1  0  0  0
  1  2  2  0  0  0
  2  3  1  0  0  0
  3  4  2  0  0  0
  4  5  1  0  0  0
  4  6  1  0  0  0
  6 19  1  0  0  0
 19 21  1  0  0  0
 21 22  2  0  0  0
 22 23  1  0  0  0
 23 24  2  0  0  0
 24 25  1  0  0  0
 25 26  2  0  0  0
 26 27  1  0  0  0
 27 28  2  0  0  0
 27 29  2  0  0  0
 27 30  1  0  0  0
 30 31  1  0  0  0
 30 32  1  0  0  0
  6  7  2  0  0  0
 13 14  1  0  0  0
 14 15  2  0  0  0
 15 16  1  0  0  0
 15 10  1  0  0  0
  7  1  1  0  0  0
 26 21  1  0  0  0
  8  9  1  0  0  0
 19 20  1  0  0  0
M  END
> <minimizedAffinity>
-8.27782

> <CNNscore>
0.7175766230

> <CNNaffinity>
6.9920797348

> <CNN_VS>
5.0173530579

> <CNNaffinity_variance>
0.1023013368

$$$$
[H]c1nc(N([H])c2c([H])c([H])c(OC([H])([H])[H])c(Cl)c2[H])nc(N([H])c2c([H])c([H])c([H])c([H])c2S(=O)(=O)N(C([H])([H])[H])C([H])([H])[H])c1Cl


 32 34  0  0  0  0  0  0  0  0999 V2000
   52.0635   -3.8984   -7.3139 C   0  0  0  0  0  0  0  0  0  0  0  0
   50.8625   -3.3718   -7.0703 N   0  0  0  0  0  0  0  0  0  0  0  0
   50.1024   -3.7122   -6.0177 C   0  0  0  0  0  0  0  0  0  0  0  0
   50.6027   -4.6571   -5.1518 C   0  0  0  0  0  0  0  0  0  0  0  0
   49.6441   -5.1142   -3.7876 Cl  0  0  0  0  0  0  0  0  0  0  0  0
   51.8693   -5.2555   -5.3514 C   0  0  0  0  0  0  0  0  0  0  0  0
   52.5041   -4.8228   -6.4282 N   0  0  0  0  0  0  0  0  0  0  0  0
   52.8628   -3.5333   -8.4302 N   0  0  0  0  0  0  0  0  0  0  0  0
   52.3775   -2.8758   -9.1532 H   0  0  0  0  0  0  0  0  0  0  0  0
   56.7809   -4.6146   -9.5019 C   0  0  0  0  0  0  0  0  0  0  0  0
   56.3987   -4.6296   -8.1854 C   0  0  0  0  0  0  0  0  0  0  0  0
   55.0899   -4.2622   -7.8134 C   0  0  0  0  0  0  0  0  0  0  0  0
   54.1675   -3.8843   -8.7323 C   0  0  0  0  0  0  0  0  0  0  0  0
   54.5770   -3.8751  -10.0716 C   0  0  0  0  0  0  0  0  0  0  0  0
   55.8550   -4.2325  -10.4470 C   0  0  0  0  0  0  0  0  0  0  0  0
   56.3120   -4.2014  -12.1477 Cl  0  0  0  0  0  0  0  0  0  0  0  0
   58.9608   -5.7304   -9.2086 C   0  0  0  0  0  0  0  0  0  0  0  0
   58.0401   -4.9602   -9.9386 O   0  0  0  0  0  0  0  0  0  0  0  0
   52.2802   -6.1988   -4.4102 N   0  0  0  0  0  0  0  0  0  0  0  0
   51.5361   -6.6383   -3.8299 H   0  0  0  0  0  0  0  0  0  0  0  0
   53.6005   -6.6240   -4.1669 C   0  0  0  0  0  0  0  0  0  0  0  0
   54.5807   -6.8017   -5.1127 C   0  0  0  0  0  0  0  0  0  0  0  0
   55.8703   -7.2412   -4.7836 C   0  0  0  0  0  0  0  0  0  0  0  0
   56.1950   -7.5116   -3.4824 C   0  0  0  0  0  0  0  0  0  0  0  0
   55.2394   -7.3463   -2.5011 C   0  0  0  0  0  0  0  0  0  0  0  0
   53.9898   -6.9176   -2.8365 C   0  0  0  0  0  0  0  0  0  0  0  0
   52.8028   -6.7230   -1.5807 S   0  0  0  0  0  0  0  0  0  0  0  0
   52.1480   -5.3592   -1.6500 O   0  0  0  0  0  0  0  0  0  0  0  0
   53.3924   -6.9778   -0.1944 O   0  0  0  0  0  0  0  0  0  0  0  0
   51.5045   -7.8520   -1.6970 N   0  0  0  0  0  0  0  0  0  0  0  0
   50.4397   -7.6414   -0.7796 C   0  0  0  0  0  0  0  0  0  0  0  0
   51.9856   -9.1887   -1.8074 C   0  0  0  0  0  0  0  0  0  0  0  0
 17 18  1  0  0  0
 18 10  1  0  0  0
 10 11  2  0  0  0
 11 12  1  0  0  0
 12 13  2  0  0  0
 13  8  1  0  0  0
  8  1  1  0  0  0
  1  2  2  0  0  0
  2  3  1  0  0  0
  3  4  2  0  0  0
  4  5  1  0  0  0
  4  6  1  0  0  0
  6 19  1  0  0  0
 19 21  1  0  0  0
 21 22  2  0  0  0
 22 23  1  0  0  0
 23 24  2  0  0  0
 24 25  1  0  0  0
 25 26  2  0  0  0
 26 27  1  0  0  0
 27 28  2  0  0  0
 27 29  2  0  0  0
 27 30  1  0  0  0
 30 31  1  0  0  0
 30 32  1  0  0  0
  6  7  2  0  0  0
 13 14  1  0  0  0
 14 15  2  0  0  0
 15 16  1  0  0  0
 15 10  1  0  0  0
  7  1  1  0  0  0
 26 21  1  0  0  0
  8  9  1  0  0  0
 19 20  1  0  0  0
M  END
> <minimizedAffinity>
-8.58177

> <CNNscore>
0.4364570379

> <CNNaffinity>
7.4219713211

> <CNN_VS>
3.2393715382

> <CNNaffinity_variance>
0.1355362236

$$$$
[H]c1nc(N([H])c2c([H])c([H])c(OC([H])([H])[H])c(Cl)c2[H])nc(N([H])c2c([H])c([H])c([H])c([H])c2S(=O)(=O)N(C([H])([H])[H])C([H])([H])[H])c1Cl


 32 34  0  0  0  0  0  0  0  0999 V2000
   56.3652   -4.0550  -11.7081 C   0  0  0  0  0  0  0  0  0  0  0  0
   57.6103   -4.4228  -11.4021 N   0  0  0  0  0  0  0  0  0  0  0  0
   57.9760   -4.8679  -10.1899 C   0  0  0  0  0  0  0  0  0  0  0  0
   57.0028   -4.9434   -9.2204 C   0  0  0  0  0  0  0  0  0  0  0  0
   57.4467   -5.5134   -7.6497 Cl  0  0  0  0  0  0  0  0  0  0  0  0
   55.6627   -4.5691   -9.4781 C   0  0  0  0  0  0  0  0  0  0  0  0
   55.4503   -4.1507  -10.7148 N   0  0  0  0  0  0  0  0  0  0  0  0
   55.9850   -3.5846  -12.9936 N   0  0  0  0  0  0  0  0  0  0  0  0
   54.9821   -3.1591  -13.0541 H   0  0  0  0  0  0  0  0  0  0  0  0
   58.2822   -3.5045  -16.5129 C   0  0  0  0  0  0  0  0  0  0  0  0
   56.9335   -3.7417  -16.5769 C   0  0  0  0  0  0  0  0  0  0  0  0
   56.1543   -3.7780  -15.4031 C   0  0  0  0  0  0  0  0  0  0  0  0
   56.7014   -3.5815  -14.1783 C   0  0  0  0  0  0  0  0  0  0  0  0
   58.0804   -3.3412  -14.1336 C   0  0  0  0  0  0  0  0  0  0  0  0
   58.8526   -3.3036  -15.2756 C   0  0  0  0  0  0  0  0  0  0  0  0
   60.5829   -2.9967  -15.1563 Cl  0  0  0  0  0  0  0  0  0  0  0  0
   60.4283   -3.9254  -17.6532 C   0  0  0  0  0  0  0  0  0  0  0  0
   59.1050   -3.4548  -17.6157 O   0  0  0  0  0  0  0  0  0  0  0  0
   54.7572   -4.6889   -8.4244 N   0  0  0  0  0  0  0  0  0  0  0  0
   54.9720   -5.4045   -7.6995 H   0  0  0  0  0  0  0  0  0  0  0  0
   53.5821   -3.9360   -8.2357 C   0  0  0  0  0  0  0  0  0  0  0  0
   53.2945   -2.7256   -8.8180 C   0  0  0  0  0  0  0  0  0  0  0  0
   52.1011   -2.0356   -8.5646 C   0  0  0  0  0  0  0  0  0  0  0  0
   51.1697   -2.5605   -7.7109 C   0  0  0  0  0  0  0  0  0  0  0  0
   51.4194   -3.7743   -7.1047 C   0  0  0  0  0  0  0  0  0  0  0  0
   52.5844   -4.4338   -7.3616 C   0  0  0  0  0  0  0  0  0  0  0  0
   52.8764   -5.9595   -6.5798 S   0  0  0  0  0  0  0  0  0  0  0  0
   52.8070   -7.1053   -7.5677 O   0  0  0  0  0  0  0  0  0  0  0  0
   51.9259   -6.1898   -5.4060 O   0  0  0  0  0  0  0  0  0  0  0  0
   54.4463   -6.0679   -5.8744 N   0  0  0  0  0  0  0  0  0  0  0  0
   55.0009   -7.3759   -5.8385 C   0  0  0  0  0  0  0  0  0  0  0  0
   54.5271   -5.3162   -4.6667 C   0  0  0  0  0  0  0  0  0  0  0  0
 17 18  1  0  0  0
 18 10  1  0  0  0
 10 11  2  0  0  0
 11 12  1  0  0  0
 12 13  2  0  0  0
 13  8  1  0  0  0
  8  1  1  0  0  0
  1  2  2  0  0  0
  2  3  1  0  0  0
  3  4  2  0  0  0
  4  5  1  0  0  0
  4  6  1  0  0  0
  6 19  1  0  0  0
 19 21  1  0  0  0
 21 22  2  0  0  0
 22 23  1  0  0  0
 23 24  2  0  0  0
 24 25  1  0  0  0
 25 26  2  0  0  0
 26 27  1  0  0  0
 27 28  2  0  0  0
 27 29  2  0  0  0
 27 30  1  0  0  0
 30 31  1  0  0  0
 30 32  1  0  0  0
  6  7  2  0  0  0
 13 14  1  0  0  0
 14 15  2  0  0  0
 15 16  1  0  0  0
 15 10  1  0  0  0
  7  1  1  0  0  0
 26 21  1  0  0  0
  8  9  1  0  0  0
 19 20  1  0  0  0
M  END
> <minimizedAffinity>
-7.80149

> <CNNscore>
0.3766522408

> <CNNaffinity>
6.7584533691

> <CNN_VS>
2.5455865860

> <CNNaffinity_variance>
0.1431837827

$$$$
[H]c1nc(N([H])c2c([H])c([H])c(OC([H])([H])[H])c(Cl)c2[H])nc(N([H])c2c([H])c([H])c([H])c([H])c2S(=O)(=O)N(C([H])([H])[H])C([H])([H])[H])c1Cl


 32 34  0  0  0  0  0  0  0  0999 V2000
   56.0415   -4.2320  -10.4613 C   0  0  0  0  0  0  0  0  0  0  0  0
   57.1695   -4.3647   -9.7620 N   0  0  0  0  0  0  0  0  0  0  0  0
   57.2007   -4.5957   -8.4402 C   0  0  0  0  0  0  0  0  0  0  0  0
   55.9955   -4.6987   -7.7846 C   0  0  0  0  0  0  0  0  0  0  0  0
   56.0067   -4.9958   -6.0815 Cl  0  0  0  0  0  0  0  0  0  0  0  0
   54.7622   -4.5681   -8.4660 C   0  0  0  0  0  0  0  0  0  0  0  0
   54.8866   -4.3429   -9.7634 N   0  0  0  0  0  0  0  0  0  0  0  0
   56.0159   -3.9876  -11.8605 N   0  0  0  0  0  0  0  0  0  0  0  0
   55.0210   -3.9508  -12.3071 H   0  0  0  0  0  0  0  0  0  0  0  0
   59.1039   -3.3930  -14.6498 C   0  0  0  0  0  0  0  0  0  0  0  0
   59.4020   -3.6165  -13.3305 C   0  0  0  0  0  0  0  0  0  0  0  0
   58.3750   -3.8100  -12.3850 C   0  0  0  0  0  0  0  0  0  0  0  0
   57.0665   -3.7837  -12.7389 C   0  0  0  0  0  0  0  0  0  0  0  0
   56.7822   -3.5538  -14.0908 C   0  0  0  0  0  0  0  0  0  0  0  0
   57.7790   -3.3629  -15.0245 C   0  0  0  0  0  0  0  0  0  0  0  0
   57.3597   -3.0779  -16.7113 Cl  0  0  0  0  0  0  0  0  0  0  0  0
   61.4180   -3.5016  -15.4960 C   0  0  0  0  0  0  0  0  0  0  0  0
   60.0530   -3.1959  -15.6276 O   0  0  0  0  0  0  0  0  0  0  0  0
   53.6008   -4.6938   -7.7044 N   0  0  0  0  0  0  0  0  0  0  0  0
   53.5295   -5.5320   -7.0913 H   0  0  0  0  0  0  0  0  0  0  0  0
   52.5140   -3.7987   -7.6744 C   0  0  0  0  0  0  0  0  0  0  0  0
   52.4314   -2.6034   -8.3463 C   0  0  0  0  0  0  0  0  0  0  0  0
   51.3128   -1.7644   -8.2503 C   0  0  0  0  0  0  0  0  0  0  0  0
   50.2492   -2.1208   -7.4670 C   0  0  0  0  0  0  0  0  0  0  0  0
   50.2918   -3.3135   -6.7749 C   0  0  0  0  0  0  0  0  0  0  0  0
   51.3863   -4.1193   -6.8788 C   0  0  0  0  0  0  0  0  0  0  0  0
   51.4163   -5.6145   -5.9914 S   0  0  0  0  0  0  0  0  0  0  0  0
   51.9056   -6.7572   -6.8565 O   0  0  0  0  0  0  0  0  0  0  0  0
   50.0571   -5.9381   -5.3734 O   0  0  0  0  0  0  0  0  0  0  0  0
   52.4909   -5.5788   -4.6431 N   0  0  0  0  0  0  0  0  0  0  0  0
   53.5101   -6.5691   -4.6594 C   0  0  0  0  0  0  0  0  0  0  0  0
   51.7821   -5.4247   -3.4167 C   0  0  0  0  0  0  0  0  0  0  0  0
 17 18  1  0  0  0
 18 10  1  0  0  0
 10 11  2  0  0  0
 11 12  1  0  0  0
 12 13  2  0  0  0
 13  8  1  0  0  0
  8  1  1  0  0  0
  1  2  2  0  0  0
  2  3  1  0  0  0
  3  4  2  0  0  0
  4  5  1  0  0  0
  4  6  1  0  0  0
  6 19  1  0  0  0
 19 21  1  0  0  0
 21 22  2  0  0  0
 22 23  1  0  0  0
 23 24  2  0  0  0
 24 25  1  0  0  0
 25 26  2  0  0  0
 26 27  1  0  0  0
 27 28  2  0  0  0
 27 29  2  0  0  0
 27 30  1  0  0  0
 30 31  1  0  0  0
 30 32  1  0  0  0
  6  7  2  0  0  0
 13 14  1  0  0  0
 14 15  2  0  0  0
 15 16  1  0  0  0
 15 10  1  0  0  0
  7  1  1  0  0  0
 26 21  1  0  0  0
  8  9  1  0  0  0
 19 20  1  0  0  0
M  END
> <minimizedAffinity>
-8.23924

> <CNNscore>
0.3652174473

> <CNNaffinity>
6.8053245544

> <CNN_VS>
2.4854233265

> <CNNaffinity_variance>
0.2924247384

$$$$
[H]c1nc(N([H])c2c([H])c([H])c(OC([H])([H])[H])c(Cl)c2[H])nc(N([H])c2c([H])c([H])c([H])c([H])c2S(=O)(=O)N(C([H])([H])[H])C([H])([H])[H])c1Cl


 32 34  0  0  0  0  0  0  0  0999 V2000
   56.0480   -3.9451  -10.3926 C   0  0  0  0  0  0  0  0  0  0  0  0
   56.7696   -4.6951   -9.5584 N   0  0  0  0  0  0  0  0  0  0  0  0
   58.0103   -5.1272   -9.8331 C   0  0  0  0  0  0  0  0  0  0  0  0
   58.5540   -4.7691  -11.0451 C   0  0  0  0  0  0  0  0  0  0  0  0
   60.1508   -5.3123  -11.4247 Cl  0  0  0  0  0  0  0  0  0  0  0  0
   57.8431   -3.9754  -11.9762 C   0  0  0  0  0  0  0  0  0  0  0  0
   56.6344   -3.6239  -11.5699 N   0  0  0  0  0  0  0  0  0  0  0  0
   54.7351   -3.4912  -10.0952 N   0  0  0  0  0  0  0  0  0  0  0  0
   54.3236   -2.7671  -10.8003 H   0  0  0  0  0  0  0  0  0  0  0  0
   52.1319   -4.3931   -6.9205 C   0  0  0  0  0  0  0  0  0  0  0  0
   53.2268   -5.1831   -7.1581 C   0  0  0  0  0  0  0  0  0  0  0  0
   54.1027   -4.8947   -8.2239 C   0  0  0  0  0  0  0  0  0  0  0  0
   53.8997   -3.8365   -9.0466 C   0  0  0  0  0  0  0  0  0  0  0  0
   52.7758   -3.0417   -8.7881 C   0  0  0  0  0  0  0  0  0  0  0  0
   51.9121   -3.3146   -7.7482 C   0  0  0  0  0  0  0  0  0  0  0  0
   50.5147   -2.2785   -7.4721 Cl  0  0  0  0  0  0  0  0  0  0  0  0
   51.4204   -5.5279   -4.8496 C   0  0  0  0  0  0  0  0  0  0  0  0
   51.2345   -4.6135   -5.8998 O   0  0  0  0  0  0  0  0  0  0  0  0
   58.4907   -3.6684  -13.1724 N   0  0  0  0  0  0  0  0  0  0  0  0
   59.5228   -3.5400  -13.1283 H   0  0  0  0  0  0  0  0  0  0  0  0
   57.8922   -3.5194  -14.4385 C   0  0  0  0  0  0  0  0  0  0  0  0
   56.5578   -3.6732  -14.7258 C   0  0  0  0  0  0  0  0  0  0  0  0
   56.0463   -3.5177  -16.0215 C   0  0  0  0  0  0  0  0  0  0  0  0
   56.8810   -3.2019  -17.0585 C   0  0  0  0  0  0  0  0  0  0  0  0
   58.2288   -3.0387  -16.8130 C   0  0  0  0  0  0  0  0  0  0  0  0
   58.7112   -3.1925  -15.5475 C   0  0  0  0  0  0  0  0  0  0  0  0
   60.4150   -2.9867  -15.2668 S   0  0  0  0  0  0  0  0  0  0  0  0
   60.6718   -2.1948  -14.0017 O   0  0  0  0  0  0  0  0  0  0  0  0
   61.1171   -2.3487  -16.4644 O   0  0  0  0  0  0  0  0  0  0  0  0
   61.2479   -4.4796  -15.0401 N   0  0  0  0  0  0  0  0  0  0  0  0
   62.2096   -4.4794  -13.9938 C   0  0  0  0  0  0  0  0  0  0  0  0
   61.6698   -5.0340  -16.2831 C   0  0  0  0  0  0  0  0  0  0  0  0
 17 18  1  0  0  0
 18 10  1  0  0  0
 10 11  2  0  0  0
 11 12  1  0  0  0
 12 13  2  0  0  0
 13  8  1  0  0  0
  8  1  1  0  0  0
  1  2  2  0  0  0
  2  3  1  0  0  0
  3  4  2  0  0  0
  4  5  1  0  0  0
  4  6  1  0  0  0
  6 19  1  0  0  0
 19 21  1  0  0  0
 21 22  2  0  0  0
 22 23  1  0  0  0
 23 24  2  0  0  0
 24 25  1  0  0  0
 25 26  2  0  0  0
 26 27  1  0  0  0
 27 28  2  0  0  0
 27 29  2  0  0  0
 27 30  1  0  0  0
 30 31  1  0  0  0
 30 32  1  0  0  0
  6  7  2  0  0  0
 13 14  1  0  0  0
 14 15  2  0  0  0
 15 16  1  0  0  0
 15 10  1  0  0  0
  7  1  1  0  0  0
 26 21  1  0  0  0
  8  9  1  0  0  0
 19 20  1  0  0  0
M  END
> <minimizedAffinity>
-7.52499

> <CNNscore>
0.3612683415

> <CNNaffinity>
6.6974229813

> <CNN_VS>
2.4195668697

> <CNNaffinity_variance>
0.0913704932

$$$$
[H]c1nc(N([H])c2c([H])c([H])c(OC([H])([H])[H])c(Cl)c2[H])nc(N([H])c2c([H])c([H])c([H])c([H])c2S(=O)(=O)N(C([H])([H])[H])C([H])([H])[H])c1Cl


 32 34  0  0  0  0  0  0  0  0999 V2000
   55.9510   -5.3060   -5.9212 C   0  0  0  0  0  0  0  0  0  0  0  0
   56.7172   -5.9820   -5.0640 N   0  0  0  0  0  0  0  0  0  0  0  0
   56.2441   -6.9113   -4.2190 C   0  0  0  0  0  0  0  0  0  0  0  0
   54.8932   -7.1698   -4.2503 C   0  0  0  0  0  0  0  0  0  0  0  0
   54.2571   -8.3623   -3.1722 Cl  0  0  0  0  0  0  0  0  0  0  0  0
   54.0239   -6.4889   -5.1351 C   0  0  0  0  0  0  0  0  0  0  0  0
   54.6300   -5.6024   -5.9074 N   0  0  0  0  0  0  0  0  0  0  0  0
   56.4585   -4.3234   -6.8130 N   0  0  0  0  0  0  0  0  0  0  0  0
   56.5282   -3.3151   -6.4016 H   0  0  0  0  0  0  0  0  0  0  0  0
   57.8926   -4.7714  -10.7388 C   0  0  0  0  0  0  0  0  0  0  0  0
   56.7062   -4.1239  -10.5093 C   0  0  0  0  0  0  0  0  0  0  0  0
   56.2119   -3.9739   -9.1981 C   0  0  0  0  0  0  0  0  0  0  0  0
   56.8826   -4.4581   -8.1240 C   0  0  0  0  0  0  0  0  0  0  0  0
   58.0921   -5.1166   -8.3788 C   0  0  0  0  0  0  0  0  0  0  0  0
   58.5852   -5.2692   -9.6576 C   0  0  0  0  0  0  0  0  0  0  0  0
   60.1128   -6.1072   -9.9158 Cl  0  0  0  0  0  0  0  0  0  0  0  0
   58.8576   -3.9211  -12.8432 C   0  0  0  0  0  0  0  0  0  0  0  0
   58.4362   -4.9550  -11.9904 O   0  0  0  0  0  0  0  0  0  0  0  0
   52.6731   -6.8317   -5.0856 N   0  0  0  0  0  0  0  0  0  0  0  0
   52.3800   -7.6668   -5.6337 H   0  0  0  0  0  0  0  0  0  0  0  0
   51.6626   -6.1669   -4.3644 C   0  0  0  0  0  0  0  0  0  0  0  0
   51.4791   -6.2080   -3.0037 C   0  0  0  0  0  0  0  0  0  0  0  0
   50.4357   -5.5230   -2.3661 C   0  0  0  0  0  0  0  0  0  0  0  0
   49.5516   -4.7785   -3.0981 C   0  0  0  0  0  0  0  0  0  0  0  0
   49.7002   -4.7107   -4.4680 C   0  0  0  0  0  0  0  0  0  0  0  0
   50.7203   -5.3818   -5.0737 C   0  0  0  0  0  0  0  0  0  0  0  0
   50.8812   -5.2838   -6.8024 S   0  0  0  0  0  0  0  0  0  0  0  0
   49.5407   -5.0480   -7.4666 O   0  0  0  0  0  0  0  0  0  0  0  0
   51.5701   -6.5183   -7.3818 O   0  0  0  0  0  0  0  0  0  0  0  0
   51.8748   -3.9709   -7.3154 N   0  0  0  0  0  0  0  0  0  0  0  0
   51.1820   -2.7575   -7.5750 C   0  0  0  0  0  0  0  0  0  0  0  0
   52.8133   -4.3843   -8.3046 C   0  0  0  0  0  0  0  0  0  0  0  0
 17 18  1  0  0  0
 18 10  1  0  0  0
 10 11  2  0  0  0
 11 12  1  0  0  0
 12 13  2  0  0  0
 13  8  1  0  0  0
  8  1  1  0  0  0
  1  2  2  0  0  0
  2  3  1  0  0  0
  3  4  2  0  0  0
  4  5  1  0  0  0
  4  6  1  0  0  0
  6 19  1  0  0  0
 19 21  1  0  0  0
 21 22  2  0  0  0
 22 23  1  0  0  0
 23 24  2  0  0  0
 24 25  1  0  0  0
 25 26  2  0  0  0
 26 27  1  0  0  0
 27 28  2  0  0  0
 27 29  2  0  0  0
 27 30  1  0  0  0
 30 31  1  0  0  0
 30 32  1  0  0  0
  6  7  2  0  0  0
 13 14  1  0  0  0
 14 15  2  0  0  0
 15 16  1  0  0  0
 15 10  1  0  0  0
  7  1  1  0  0  0
 26 21  1  0  0  0
  8  9  1  0  0  0
 19 20  1  0  0  0
M  END
> <minimizedAffinity>
-8.11411

> <CNNscore>
0.2991124690

> <CNNaffinity>
6.9473776817

> <CNN_VS>
2.0780472755

> <CNNaffinity_variance>
0.2090137899

$$$$
[H]c1nc(N([H])c2c([H])c([H])c(OC([H])([H])[H])c(Cl)c2[H])nc(N([H])c2c([H])c([H])c([H])c([H])c2S(=O)(=O)N(C([H])([H])[H])C([H])([H])[H])c1Cl


 32 34  0  0  0  0  0  0  0  0999 V2000
   53.3291   -4.2468   -7.9183 C   0  0  0  0  0  0  0  0  0  0  0  0
   54.2404   -4.1520   -8.8876 N   0  0  0  0  0  0  0  0  0  0  0  0
   55.5202   -4.5298   -8.7427 C   0  0  0  0  0  0  0  0  0  0  0  0
   55.8977   -5.0406   -7.5223 C   0  0  0  0  0  0  0  0  0  0  0  0
   57.5405   -5.5349   -7.3083 Cl  0  0  0  0  0  0  0  0  0  0  0  0
   54.9814   -5.1685   -6.4517 C   0  0  0  0  0  0  0  0  0  0  0  0
   53.7578   -4.7568   -6.7397 N   0  0  0  0  0  0  0  0  0  0  0  0
   51.9759   -3.8450   -8.0787 N   0  0  0  0  0  0  0  0  0  0  0  0
   51.6340   -3.7682   -9.1120 H   0  0  0  0  0  0  0  0  0  0  0  0
   49.1093   -3.0757   -5.1021 C   0  0  0  0  0  0  0  0  0  0  0  0
   49.2292   -2.2324   -6.1763 C   0  0  0  0  0  0  0  0  0  0  0  0
   50.1914   -2.4762   -7.1768 C   0  0  0  0  0  0  0  0  0  0  0  0
   51.0266   -3.5424   -7.1174 C   0  0  0  0  0  0  0  0  0  0  0  0
   50.8891   -4.3919   -6.0124 C   0  0  0  0  0  0  0  0  0  0  0  0
   49.9513   -4.1630   -5.0276 C   0  0  0  0  0  0  0  0  0  0  0  0
   49.8252   -5.2671   -3.6611 Cl  0  0  0  0  0  0  0  0  0  0  0  0
   46.7989   -2.9396   -4.2499 C   0  0  0  0  0  0  0  0  0  0  0  0
   48.1940   -2.9009   -4.0885 O   0  0  0  0  0  0  0  0  0  0  0  0
   55.4699   -5.7024   -5.2596 N   0  0  0  0  0  0  0  0  0  0  0  0
   56.5034   -5.7926   -5.1740 H   0  0  0  0  0  0  0  0  0  0  0  0
   54.7080   -6.1278   -4.1542 C   0  0  0  0  0  0  0  0  0  0  0  0
   53.4213   -6.6071   -4.1946 C   0  0  0  0  0  0  0  0  0  0  0  0
   52.7298   -6.9988   -3.0401 C   0  0  0  0  0  0  0  0  0  0  0  0
   53.3308   -6.9121   -1.8141 C   0  0  0  0  0  0  0  0  0  0  0  0
   54.6228   -6.4357   -1.7292 C   0  0  0  0  0  0  0  0  0  0  0  0
   55.2826   -6.0592   -2.8609 C   0  0  0  0  0  0  0  0  0  0  0  0
   56.9083   -5.4569   -2.7248 S   0  0  0  0  0  0  0  0  0  0  0  0
   56.9785   -3.9828   -3.0650 O   0  0  0  0  0  0  0  0  0  0  0  0
   57.8880   -6.2629   -3.5762 O   0  0  0  0  0  0  0  0  0  0  0  0
   57.5433   -5.5806   -1.1263 N   0  0  0  0  0  0  0  0  0  0  0  0
   58.3721   -4.4990   -0.7225 C   0  0  0  0  0  0  0  0  0  0  0  0
   58.0435   -6.8889   -0.8648 C   0  0  0  0  0  0  0  0  0  0  0  0
 17 18  1  0  0  0
 18 10  1  0  0  0
 10 11  2  0  0  0
 11 12  1  0  0  0
 12 13  2  0  0  0
 13  8  1  0  0  0
  8  1  1  0  0  0
  1  2  2  0  0  0
  2  3  1  0  0  0
  3  4  2  0  0  0
  4  5  1  0  0  0
  4  6  1  0  0  0
  6 19  1  0  0  0
 19 21  1  0  0  0
 21 22  2  0  0  0
 22 23  1  0  0  0
 23 24  2  0  0  0
 24 25  1  0  0  0
 25 26  2  0  0  0
 26 27  1  0  0  0
 27 28  2  0  0  0
 27 29  2  0  0  0
 27 30  1  0  0  0
 30 31  1  0  0  0
 30 32  1  0  0  0
  6  7  2  0  0  0
 13 14  1  0  0  0
 14 15  2  0  0  0
 15 16  1  0  0  0
 15 10  1  0  0  0
  7  1  1  0  0  0
 26 21  1  0  0  0
  8  9  1  0  0  0
 19 20  1  0  0  0
M  END
> <minimizedAffinity>
-7.72395

> <CNNscore>
0.2966018319

> <CNNaffinity>
7.3012647629

> <CNN_VS>
2.1655685902

> <CNNaffinity_variance>
0.1159680337

$$$$
[H]N=C(N([H])[H])N([H])C([H])([H])C([H])([H])C([H])([H])[C@@]([H])(C(=O)OC(C([H])([H])[H])(C([H])([H])[H])C([H])([H])[H])N([H])C(=O)[C@@]([H])(N([H])C(=O)[C@@]([H])(N([H])C(=O)[C@]([H])(N([H])C(=O)OC(C([H])([H])[H])(C([H])([H])[H])C([H])([H])[H])C([H])([H])c1c([H])c([H])c([H])c([H])c1[H])C([H])([H])C([H])([H])C([H])([H])N([H])C(=N[H])N([H])[H])C([H])([H])C([H])([H])C([H])([H])N([H])C(=N[H])N([H])[H]


 72 72  0  0  0  0  0  0  0  0999 V2000
   55.7715   -4.2515   -6.2117 C   0  0  0  0  0  0  0  0  0  0  0  0
   56.5457   -3.2780   -6.5408 O   0  0  0  0  0  0  0  0  0  0  0  0
   55.4914   -4.7227   -5.0348 N   0  0  0  0  0  0  0  0  0  0  0  0
   56.2326   -3.7488   -4.3977 H   0  0  0  0  0  0  0  0  0  0  0  0
   55.1928   -5.2275   -3.7482 C   0  0  0  0  0  0  0  0  0  0  0  0
   56.1026   -5.3245   -2.6068 C   0  0  0  0  0  0  0  0  0  0  0  0
   56.9590   -4.4981   -2.3120 O   0  0  0  0  0  0  0  0  0  0  0  0
   55.9216   -6.5157   -1.7967 N   0  0  0  0  0  0  0  0  0  0  0  0
   55.1092   -7.1714   -2.1583 H   0  0  0  0  0  0  0  0  0  0  0  0
   56.5509   -7.0117   -0.6603 C   0  0  0  0  0  0  0  0  0  0  0  0
   57.5235   -8.1216   -1.0078 C   0  0  0  0  0  0  0  0  0  0  0  0
   57.1474   -9.0239   -1.8369 O   0  0  0  0  0  0  0  0  0  0  0  0
   58.7916   -8.2366   -0.4896 O   0  0  0  0  0  0  0  0  0  0  0  0
   59.8462   -7.3586   -0.8484 C   0  0  0  0  0  0  0  0  0  0  0  0
   59.9555   -6.1800    0.0794 C   0  0  0  0  0  0  0  0  0  0  0  0
   59.6528   -6.9109   -2.2640 C   0  0  0  0  0  0  0  0  0  0  0  0
   61.1909   -8.0834   -0.7531 C   0  0  0  0  0  0  0  0  0  0  0  0
   55.4832   -7.7870    0.1547 C   0  0  0  0  0  0  0  0  0  0  0  0
   54.2255   -7.0503    0.3864 C   0  0  0  0  0  0  0  0  0  0  0  0
   53.0958   -8.0171    0.1203 C   0  0  0  0  0  0  0  0  0  0  0  0
   51.8380   -7.3105    0.1466 N   0  0  0  0  0  0  0  0  0  0  0  0
   51.7673   -6.3395    0.5334 H   0  0  0  0  0  0  0  0  0  0  0  0
   50.7192   -8.0123   -0.3770 C   0  0  0  0  0  0  0  0  0  0  0  0
   50.9032   -8.8812   -1.4846 N   0  0  0  0  0  0  0  0  0  0  0  0
   49.5730   -7.8734    0.1458 N   0  0  0  0  0  0  0  0  0  0  0  0
   50.2354   -9.7050   -1.6187 H   0  0  0  0  0  0  0  0  0  0  0  0
   51.6261   -8.8215   -2.2048 H   0  0  0  0  0  0  0  0  0  0  0  0
   49.2608   -7.3133    0.9316 H   0  0  0  0  0  0  0  0  0  0  0  0
   54.5174   -6.5715   -3.9103 C   0  0  0  0  0  0  0  0  0  0  0  0
   53.0526   -6.6168   -3.7524 C   0  0  0  0  0  0  0  0  0  0  0  0
   52.3387   -5.5633   -3.0095 C   0  0  0  0  0  0  0  0  0  0  0  0
   50.8745   -5.6671   -3.0602 N   0  0  0  0  0  0  0  0  0  0  0  0
   50.3385   -6.2392   -2.3361 H   0  0  0  0  0  0  0  0  0  0  0  0
   50.0506   -5.0557   -4.0322 C   0  0  0  0  0  0  0  0  0  0  0  0
   49.2941   -3.8826   -3.7482 N   0  0  0  0  0  0  0  0  0  0  0  0
   50.0088   -5.5945   -5.2195 N   0  0  0  0  0  0  0  0  0  0  0  0
   48.3963   -3.7200   -4.2332 H   0  0  0  0  0  0  0  0  0  0  0  0
   49.6284   -3.1928   -3.0701 H   0  0  0  0  0  0  0  0  0  0  0  0
   50.5699   -6.4432   -5.4231 H   0  0  0  0  0  0  0  0  0  0  0  0
   55.1343   -4.8543   -7.4618 C   0  0  0  0  0  0  0  0  0  0  0  0
   56.2184   -5.1177   -8.4215 N   0  0  0  0  0  0  0  0  0  0  0  0
   56.1435   -4.6145   -9.7161 C   0  0  0  0  0  0  0  0  0  0  0  0
   55.1424   -3.9543  -10.0768 O   0  0  0  0  0  0  0  0  0  0  0  0
   57.0310   -5.6728   -8.1049 H   0  0  0  0  0  0  0  0  0  0  0  0
   57.2398   -4.8311  -10.7200 C   0  0  0  0  0  0  0  0  0  0  0  0
   58.3937   -5.2815  -10.1569 N   0  0  0  0  0  0  0  0  0  0  0  0
   59.5538   -5.7368   -9.5545 C   0  0  0  0  0  0  0  0  0  0  0  0
   59.7813   -5.8790   -8.3432 O   0  0  0  0  0  0  0  0  0  0  0  0
   57.8095   -5.2733   -8.9170 H   0  0  0  0  0  0  0  0  0  0  0  0
   60.6485   -6.1121  -10.3629 O   0  0  0  0  0  0  0  0  0  0  0  0
   61.7006   -6.9434  -10.0689 C   0  0  0  0  0  0  0  0  0  0  0  0
   62.5783   -6.9731  -11.3487 C   0  0  0  0  0  0  0  0  0  0  0  0
   62.6091   -6.4088   -8.9819 C   0  0  0  0  0  0  0  0  0  0  0  0
   61.3381   -8.3610   -9.7993 C   0  0  0  0  0  0  0  0  0  0  0  0
   57.4149   -3.5010  -11.4833 C   0  0  0  0  0  0  0  0  0  0  0  0
   57.1093   -3.8898  -12.9079 C   0  0  0  0  0  0  0  0  0  0  0  0
   56.1826   -4.8961  -13.1555 C   0  0  0  0  0  0  0  0  0  0  0  0
   55.8351   -5.2718  -14.4522 C   0  0  0  0  0  0  0  0  0  0  0  0
   56.4288   -4.6246  -15.5225 C   0  0  0  0  0  0  0  0  0  0  0  0
   57.3396   -3.6339  -15.2588 C   0  0  0  0  0  0  0  0  0  0  0  0
   57.6791   -3.2679  -13.9792 C   0  0  0  0  0  0  0  0  0  0  0  0
   54.2954   -6.0360   -7.1704 C   0  0  0  0  0  0  0  0  0  0  0  0
   52.8125   -5.8864   -7.4215 C   0  0  0  0  0  0  0  0  0  0  0  0
   52.5918   -4.4157   -7.7305 C   0  0  0  0  0  0  0  0  0  0  0  0
   51.7050   -3.7329   -6.8721 N   0  0  0  0  0  0  0  0  0  0  0  0
   51.7425   -3.9505   -5.8199 H   0  0  0  0  0  0  0  0  0  0  0  0
   51.0809   -1.8187   -8.3100 N   0  0  0  0  0  0  0  0  0  0  0  0
   50.7529   -2.7669   -7.2650 C   0  0  0  0  0  0  0  0  0  0  0  0
   49.6075   -2.7270   -6.6905 N   0  0  0  0  0  0  0  0  0  0  0  0
   51.0283   -2.1078   -9.2738 H   0  0  0  0  0  0  0  0  0  0  0  0
   51.3639   -0.8621   -8.0426 H   0  0  0  0  0  0  0  0  0  0  0  0
   49.2861   -3.3570   -5.9408 H   0  0  0  0  0  0  0  0  0  0  0  0
 67 68  1  0  0  0
 68 69  2  0  0  0
 68 65  1  0  0  0
 65 64  1  0  0  0
 64 63  1  0  0  0
 63 62  1  0  0  0
 62 40  1  0  0  0
 40 41  1  0  0  0
 41 42  1  0  0  0
 42 43  2  0  0  0
 42 45  1  0  0  0
 45 55  1  0  0  0
 55 56  1  0  0  0
 56 57  2  0  0  0
 57 58  1  0  0  0
 58 59  2  0  0  0
 59 60  1  0  0  0
 60 61  2  0  0  0
 45 46  1  0  0  0
 46 47  1  0  0  0
 47 48  2  0  0  0
 47 50  1  0  0  0
 50 51  1  0  0  0
 51 52  1  0  0  0
 51 53  1  0  0  0
 51 54  1  0  0  0
 40  1  1  0  0  0
  1  2  2  0  0  0
  1  3  1  0  0  0
  3  5  1  0  0  0
  5 29  1  0  0  0
 29 30  1  0  0  0
 30 31  1  0  0  0
 31 32  1  0  0  0
 32 34  1  0  0  0
 34 35  1  0  0  0
 34 36  2  0  0  0
  5  6  1  0  0  0
  6  7  2  0  0  0
  6  8  1  0  0  0
  8 10  1  0  0  0
 10 18  1  0  0  0
 18 19  1  0  0  0
 19 20  1  0  0  0
 20 21  1  0  0  0
 21 23  1  0  0  0
 23 24  1  0  0  0
 23 25  2  0  0  0
 10 11  1  0  0  0
 11 12  2  0  0  0
 11 13  1  0  0  0
 13 14  1  0  0  0
 14 15  1  0  0  0
 14 16  1  0  0  0
 14 17  1  0  0  0
 61 56  1  0  0  0
 67 70  1  0  0  0
 67 71  1  0  0  0
 69 72  1  0  0  0
 65 66  1  0  0  0
 41 44  1  0  0  0
 46 49  1  0  0  0
  3  4  1  0  0  0
 32 33  1  0  0  0
 35 37  1  0  0  0
 35 38  1  0  0  0
 36 39  1  0  0  0
  8  9  1  0  0  0
 21 22  1  0  0  0
 24 26  1  0  0  0
 24 27  1  0  0  0
 25 28  1  0  0  0
M  END
> <minimizedAffinity>
-7.28988

> <CNNscore>
0.2820619047

> <CNNaffinity>
7.7741041183

> <CNN_VS>
2.1927785873

> <CNNaffinity_variance>
0.6125983000

$$$$
[H]N=C(N([H])[H])N([H])C([H])([H])C([H])([H])C([H])([H])[C@@]([H])(C(=O)OC(C([H])([H])[H])(C([H])([H])[H])C([H])([H])[H])N([H])C(=O)[C@@]([H])(N([H])C(=O)[C@@]([H])(N([H])C(=O)[C@]([H])(N([H])C(=O)OC(C([H])([H])[H])(C([H])([H])[H])C([H])([H])[H])C([H])([H])c1c([H])c([H])c([H])c([H])c1[H])C([H])([H])C([H])([H])C([H])([H])N([H])C(=N[H])N([H])[H])C([H])([H])C([H])([H])C([H])([H])N([H])C(=N[H])N([H])[H]


 72 72  0  0  0  0  0  0  0  0999 V2000
   56.9476   -4.6800   -7.2924 C   0  0  0  0  0  0  0  0  0  0  0  0
   56.5394   -3.4658   -7.1720 O   0  0  0  0  0  0  0  0  0  0  0  0
   56.7816   -5.6903   -6.4941 N   0  0  0  0  0  0  0  0  0  0  0  0
   55.9828   -4.9633   -5.6356 H   0  0  0  0  0  0  0  0  0  0  0  0
   56.5943   -6.7841   -5.6177 C   0  0  0  0  0  0  0  0  0  0  0  0
   55.3202   -7.3388   -5.1608 C   0  0  0  0  0  0  0  0  0  0  0  0
   54.9079   -8.4657   -5.4124 O   0  0  0  0  0  0  0  0  0  0  0  0
   54.5314   -6.4331   -4.3450 N   0  0  0  0  0  0  0  0  0  0  0  0
   55.0196   -5.4560   -4.1790 H   0  0  0  0  0  0  0  0  0  0  0  0
   53.2905   -6.5294   -3.7249 C   0  0  0  0  0  0  0  0  0  0  0  0
   52.2236   -5.7887   -4.5069 C   0  0  0  0  0  0  0  0  0  0  0  0
   50.9936   -6.0402   -4.2484 O   0  0  0  0  0  0  0  0  0  0  0  0
   52.4802   -4.8605   -5.4880 O   0  0  0  0  0  0  0  0  0  0  0  0
   52.0734   -5.0401   -6.8350 C   0  0  0  0  0  0  0  0  0  0  0  0
   51.4705   -6.3963   -7.0787 C   0  0  0  0  0  0  0  0  0  0  0  0
   53.2443   -4.8035   -7.7376 C   0  0  0  0  0  0  0  0  0  0  0  0
   50.9786   -4.0326   -7.1938 C   0  0  0  0  0  0  0  0  0  0  0  0
   53.3587   -5.6833   -2.4269 C   0  0  0  0  0  0  0  0  0  0  0  0
   52.8953   -6.3778   -1.2099 C   0  0  0  0  0  0  0  0  0  0  0  0
   53.4314   -7.7883   -1.2790 C   0  0  0  0  0  0  0  0  0  0  0  0
   52.7253   -8.6210   -0.3355 N   0  0  0  0  0  0  0  0  0  0  0  0
   52.9138   -8.5584    0.6930 H   0  0  0  0  0  0  0  0  0  0  0  0
   51.7741   -9.5194   -0.8891 C   0  0  0  0  0  0  0  0  0  0  0  0
   50.4201   -9.1091   -1.0058 N   0  0  0  0  0  0  0  0  0  0  0  0
   52.1323  -10.6690   -1.2848 N   0  0  0  0  0  0  0  0  0  0  0  0
   49.8058   -9.5446   -1.7646 H   0  0  0  0  0  0  0  0  0  0  0  0
   49.9314   -8.4172   -0.4337 H   0  0  0  0  0  0  0  0  0  0  0  0
   53.0400  -11.1215   -1.2874 H   0  0  0  0  0  0  0  0  0  0  0  0
   57.4637   -6.5699   -4.3983 C   0  0  0  0  0  0  0  0  0  0  0  0
   57.4713   -7.6323   -3.3767 C   0  0  0  0  0  0  0  0  0  0  0  0
   57.6839   -7.3126   -1.9540 C   0  0  0  0  0  0  0  0  0  0  0  0
   56.7597   -6.3090   -1.4102 N   0  0  0  0  0  0  0  0  0  0  0  0
   55.7271   -6.5350   -1.2631 H   0  0  0  0  0  0  0  0  0  0  0  0
   57.1159   -4.9910   -1.0446 C   0  0  0  0  0  0  0  0  0  0  0  0
   57.2281   -3.9467   -2.0068 N   0  0  0  0  0  0  0  0  0  0  0  0
   57.3313   -4.7479    0.2188 N   0  0  0  0  0  0  0  0  0  0  0  0
   57.8994   -3.1764   -1.8534 H   0  0  0  0  0  0  0  0  0  0  0  0
   56.6494   -3.9452   -2.8509 H   0  0  0  0  0  0  0  0  0  0  0  0
   57.2382   -5.5105    0.9162 H   0  0  0  0  0  0  0  0  0  0  0  0
   57.7114   -4.8438   -8.6046 C   0  0  0  0  0  0  0  0  0  0  0  0
   58.6946   -5.9207   -8.4068 N   0  0  0  0  0  0  0  0  0  0  0  0
   59.6827   -6.1486   -9.3588 C   0  0  0  0  0  0  0  0  0  0  0  0
   59.7257   -5.4527  -10.3990 O   0  0  0  0  0  0  0  0  0  0  0  0
   58.6346   -6.4888   -7.5451 H   0  0  0  0  0  0  0  0  0  0  0  0
   60.7260   -7.2154   -9.1849 C   0  0  0  0  0  0  0  0  0  0  0  0
   61.1652   -7.3240   -7.9017 N   0  0  0  0  0  0  0  0  0  0  0  0
   61.5811   -7.4351   -6.5862 C   0  0  0  0  0  0  0  0  0  0  0  0
   60.8793   -7.4895   -5.5645 O   0  0  0  0  0  0  0  0  0  0  0  0
   59.8759   -7.4549   -7.4555 H   0  0  0  0  0  0  0  0  0  0  0  0
   62.9621   -7.5108   -6.3040 O   0  0  0  0  0  0  0  0  0  0  0  0
   63.7680   -8.6173   -6.1997 C   0  0  0  0  0  0  0  0  0  0  0  0
   63.8656   -8.9197   -4.6805 C   0  0  0  0  0  0  0  0  0  0  0  0
   63.1654   -9.8648   -6.8107 C   0  0  0  0  0  0  0  0  0  0  0  0
   65.1700   -8.4317   -6.6617 C   0  0  0  0  0  0  0  0  0  0  0  0
   61.8555   -6.9026  -10.1894 C   0  0  0  0  0  0  0  0  0  0  0  0
   62.5709   -8.2246  -10.3109 C   0  0  0  0  0  0  0  0  0  0  0  0
   63.9522   -8.2679  -10.1612 C   0  0  0  0  0  0  0  0  0  0  0  0
   64.6611   -9.4664  -10.2281 C   0  0  0  0  0  0  0  0  0  0  0  0
   63.9703  -10.6457  -10.4491 C   0  0  0  0  0  0  0  0  0  0  0  0
   62.6079  -10.5834  -10.5933 C   0  0  0  0  0  0  0  0  0  0  0  0
   61.9142   -9.3998  -10.5272 C   0  0  0  0  0  0  0  0  0  0  0  0
   56.8235   -5.0528   -9.7679 C   0  0  0  0  0  0  0  0  0  0  0  0
   56.5956   -3.8567  -10.6633 C   0  0  0  0  0  0  0  0  0  0  0  0
   57.1410   -4.2498  -12.0253 C   0  0  0  0  0  0  0  0  0  0  0  0
   56.5251   -3.6357  -13.1356 N   0  0  0  0  0  0  0  0  0  0  0  0
   55.7568   -2.9056  -12.9552 H   0  0  0  0  0  0  0  0  0  0  0  0
   57.7980   -3.0600  -15.1775 N   0  0  0  0  0  0  0  0  0  0  0  0
   56.8259   -3.8870  -14.4922 C   0  0  0  0  0  0  0  0  0  0  0  0
   56.2322   -4.8385  -15.1134 N   0  0  0  0  0  0  0  0  0  0  0  0
   58.7806   -3.2337  -15.0376 H   0  0  0  0  0  0  0  0  0  0  0  0
   57.4606   -2.3059  -15.7972 H   0  0  0  0  0  0  0  0  0  0  0  0
   55.5295   -5.4760  -14.7109 H   0  0  0  0  0  0  0  0  0  0  0  0
 67 68  1  0  0  0
 68 69  2  0  0  0
 68 65  1  0  0  0
 65 64  1  0  0  0
 64 63  1  0  0  0
 63 62  1  0  0  0
 62 40  1  0  0  0
 40 41  1  0  0  0
 41 42  1  0  0  0
 42 43  2  0  0  0
 42 45  1  0  0  0
 45 55  1  0  0  0
 55 56  1  0  0  0
 56 57  2  0  0  0
 57 58  1  0  0  0
 58 59  2  0  0  0
 59 60  1  0  0  0
 60 61  2  0  0  0
 45 46  1  0  0  0
 46 47  1  0  0  0
 47 48  2  0  0  0
 47 50  1  0  0  0
 50 51  1  0  0  0
 51 52  1  0  0  0
 51 53  1  0  0  0
 51 54  1  0  0  0
 40  1  1  0  0  0
  1  2  2  0  0  0
  1  3  1  0  0  0
  3  5  1  0  0  0
  5 29  1  0  0  0
 29 30  1  0  0  0
 30 31  1  0  0  0
 31 32  1  0  0  0
 32 34  1  0  0  0
 34 35  1  0  0  0
 34 36  2  0  0  0
  5  6  1  0  0  0
  6  7  2  0  0  0
  6  8  1  0  0  0
  8 10  1  0  0  0
 10 18  1  0  0  0
 18 19  1  0  0  0
 19 20  1  0  0  0
 20 21  1  0  0  0
 21 23  1  0  0  0
 23 24  1  0  0  0
 23 25  2  0  0  0
 10 11  1  0  0  0
 11 12  2  0  0  0
 11 13  1  0  0  0
 13 14  1  0  0  0
 14 15  1  0  0  0
 14 16  1  0  0  0
 14 17  1  0  0  0
 61 56  1  0  0  0
 67 70  1  0  0  0
 67 71  1  0  0  0
 69 72  1  0  0  0
 65 66  1  0  0  0
 41 44  1  0  0  0
 46 49  1  0  0  0
  3  4  1  0  0  0
 32 33  1  0  0  0
 35 37  1  0  0  0
 35 38  1  0  0  0
 36 39  1  0  0  0
  8  9  1  0  0  0
 21 22  1  0  0  0
 24 26  1  0  0  0
 24 27  1  0  0  0
 25 28  1  0  0  0
M  END
> <minimizedAffinity>
-6.56890

> <CNNscore>
0.2708767354

> <CNNaffinity>
7.0867433548

> <CNN_VS>
1.9196338654

> <CNNaffinity_variance>
1.6081113815

$$$$
[H]N=C(N([H])[H])N([H])C([H])([H])C([H])([H])C([H])([H])[C@@]([H])(C(=O)OC(C([H])([H])[H])(C([H])([H])[H])C([H])([H])[H])N([H])C(=O)[C@@]([H])(N([H])C(=O)[C@@]([H])(N([H])C(=O)[C@]([H])(N([H])C(=O)OC(C([H])([H])[H])(C([H])([H])[H])C([H])([H])[H])C([H])([H])c1c([H])c([H])c([H])c([H])c1[H])C([H])([H])C([H])([H])C([H])([H])N([H])C(=N[H])N([H])[H])C([H])([H])C([H])([H])C([H])([H])N([H])C(=N[H])N([H])[H]


 72 72  0  0  0  0  0  0  0  0999 V2000
   55.1643   -5.3873   -6.6493 C   0  0  0  0  0  0  0  0  0  0  0  0
   54.8564   -6.3912   -7.3928 O   0  0  0  0  0  0  0  0  0  0  0  0
   55.2307   -5.3073   -5.3552 N   0  0  0  0  0  0  0  0  0  0  0  0
   54.9567   -6.6499   -5.1937 H   0  0  0  0  0  0  0  0  0  0  0  0
   55.3006   -5.2315   -3.9449 C   0  0  0  0  0  0  0  0  0  0  0  0
   56.4460   -4.8050   -3.1412 C   0  0  0  0  0  0  0  0  0  0  0  0
   56.7347   -3.6420   -2.8816 O   0  0  0  0  0  0  0  0  0  0  0  0
   57.2625   -5.8946   -2.6374 N   0  0  0  0  0  0  0  0  0  0  0  0
   56.8880   -6.8926   -2.9279 H   0  0  0  0  0  0  0  0  0  0  0  0
   58.4176   -5.9547   -1.8654 C   0  0  0  0  0  0  0  0  0  0  0  0
   59.4780   -6.8146   -2.5246 C   0  0  0  0  0  0  0  0  0  0  0  0
   59.3526   -7.0887   -3.7704 O   0  0  0  0  0  0  0  0  0  0  0  0
   60.5740   -7.3329   -1.8766 O   0  0  0  0  0  0  0  0  0  0  0  0
   60.9362   -8.7017   -1.9630 C   0  0  0  0  0  0  0  0  0  0  0  0
   61.6896   -9.1759   -0.7507 C   0  0  0  0  0  0  0  0  0  0  0  0
   61.7346   -8.9209   -3.2106 C   0  0  0  0  0  0  0  0  0  0  0  0
   59.6816   -9.5753   -2.0356 C   0  0  0  0  0  0  0  0  0  0  0  0
   58.0847   -6.7950   -0.6051 C   0  0  0  0  0  0  0  0  0  0  0  0
   57.0837   -6.1907    0.2955 C   0  0  0  0  0  0  0  0  0  0  0  0
   55.8448   -7.0511    0.2143 C   0  0  0  0  0  0  0  0  0  0  0  0
   54.7569   -6.3990    0.9022 N   0  0  0  0  0  0  0  0  0  0  0  0
   54.7291   -6.3445    1.9480 H   0  0  0  0  0  0  0  0  0  0  0  0
   53.7407   -5.8473    0.0768 C   0  0  0  0  0  0  0  0  0  0  0  0
   53.9249   -4.5531   -0.4769 N   0  0  0  0  0  0  0  0  0  0  0  0
   52.6877   -6.5074   -0.1718 N   0  0  0  0  0  0  0  0  0  0  0  0
   53.4307   -4.3008   -1.3906 H   0  0  0  0  0  0  0  0  0  0  0  0
   54.4968   -3.7943   -0.1003 H   0  0  0  0  0  0  0  0  0  0  0  0
   52.3934   -7.4317    0.1244 H   0  0  0  0  0  0  0  0  0  0  0  0
   54.8032   -6.5412   -3.3737 C   0  0  0  0  0  0  0  0  0  0  0  0
   53.4341   -6.9577   -3.7270 C   0  0  0  0  0  0  0  0  0  0  0  0
   52.5090   -6.0265   -4.3968 C   0  0  0  0  0  0  0  0  0  0  0  0
   51.1202   -6.1024   -3.9250 N   0  0  0  0  0  0  0  0  0  0  0  0
   50.4916   -6.9212   -4.1959 H   0  0  0  0  0  0  0  0  0  0  0  0
   50.4880   -5.1413   -3.1040 C   0  0  0  0  0  0  0  0  0  0  0  0
   49.1634   -4.6849   -3.3614 N   0  0  0  0  0  0  0  0  0  0  0  0
   51.1546   -4.6836   -2.0803 N   0  0  0  0  0  0  0  0  0  0  0  0
   48.8915   -3.7227   -3.1011 H   0  0  0  0  0  0  0  0  0  0  0  0
   48.4718   -5.2989   -3.7999 H   0  0  0  0  0  0  0  0  0  0  0  0
   52.1153   -5.0273   -1.8922 H   0  0  0  0  0  0  0  0  0  0  0  0
   55.4936   -4.1770   -7.5205 C   0  0  0  0  0  0  0  0  0  0  0  0
   56.5501   -4.5881   -8.4588 N   0  0  0  0  0  0  0  0  0  0  0  0
   56.3506   -4.4720   -9.8305 C   0  0  0  0  0  0  0  0  0  0  0  0
   55.2623   -4.0382  -10.2729 O   0  0  0  0  0  0  0  0  0  0  0  0
   57.4369   -4.9521   -8.0717 H   0  0  0  0  0  0  0  0  0  0  0  0
   57.4115   -4.8495  -10.8248 C   0  0  0  0  0  0  0  0  0  0  0  0
   58.5222   -5.3764  -10.2416 N   0  0  0  0  0  0  0  0  0  0  0  0
   59.6415   -5.9015   -9.6194 C   0  0  0  0  0  0  0  0  0  0  0  0
   59.9483   -5.8402   -8.4188 O   0  0  0  0  0  0  0  0  0  0  0  0
   58.0580   -5.0212   -9.0018 H   0  0  0  0  0  0  0  0  0  0  0  0
   60.5858   -6.6159  -10.3879 O   0  0  0  0  0  0  0  0  0  0  0  0
   61.9135   -6.8530  -10.1316 C   0  0  0  0  0  0  0  0  0  0  0  0
   62.0301   -8.3868   -9.9241 C   0  0  0  0  0  0  0  0  0  0  0  0
   62.8208   -6.5451  -11.3041 C   0  0  0  0  0  0  0  0  0  0  0  0
   62.4423   -6.2389   -8.8839 C   0  0  0  0  0  0  0  0  0  0  0  0
   57.7062   -3.5875  -11.6634 C   0  0  0  0  0  0  0  0  0  0  0  0
   57.2040   -3.9707  -13.0327 C   0  0  0  0  0  0  0  0  0  0  0  0
   57.7069   -3.3153  -14.1507 C   0  0  0  0  0  0  0  0  0  0  0  0
   57.3055   -3.6526  -15.4424 C   0  0  0  0  0  0  0  0  0  0  0  0
   56.3811   -4.6686  -15.6163 C   0  0  0  0  0  0  0  0  0  0  0  0
   55.8971   -5.3044  -14.5018 C   0  0  0  0  0  0  0  0  0  0  0  0
   56.2954   -4.9678  -13.2312 C   0  0  0  0  0  0  0  0  0  0  0  0
   54.3035   -3.5977   -8.1787 C   0  0  0  0  0  0  0  0  0  0  0  0
   52.9594   -4.0763   -7.6798 C   0  0  0  0  0  0  0  0  0  0  0  0
   51.9410   -3.0897   -8.2243 C   0  0  0  0  0  0  0  0  0  0  0  0
   51.0131   -2.5843   -7.2899 N   0  0  0  0  0  0  0  0  0  0  0  0
   51.0620   -1.5413   -7.0336 H   0  0  0  0  0  0  0  0  0  0  0  0
   49.8182   -4.7271   -6.9713 N   0  0  0  0  0  0  0  0  0  0  0  0
   50.0005   -3.3275   -6.6449 C   0  0  0  0  0  0  0  0  0  0  0  0
   49.2420   -2.7598   -5.7811 N   0  0  0  0  0  0  0  0  0  0  0  0
   50.4335   -5.4135   -6.5645 H   0  0  0  0  0  0  0  0  0  0  0  0
   49.0579   -4.9920   -7.6181 H   0  0  0  0  0  0  0  0  0  0  0  0
   49.2960   -1.7738   -5.4861 H   0  0  0  0  0  0  0  0  0  0  0  0
 67 68  1  0  0  0
 68 69  2  0  0  0
 68 65  1  0  0  0
 65 64  1  0  0  0
 64 63  1  0  0  0
 63 62  1  0  0  0
 62 40  1  0  0  0
 40 41  1  0  0  0
 41 42  1  0  0  0
 42 43  2  0  0  0
 42 45  1  0  0  0
 45 55  1  0  0  0
 55 56  1  0  0  0
 56 57  2  0  0  0
 57 58  1  0  0  0
 58 59  2  0  0  0
 59 60  1  0  0  0
 60 61  2  0  0  0
 45 46  1  0  0  0
 46 47  1  0  0  0
 47 48  2  0  0  0
 47 50  1  0  0  0
 50 51  1  0  0  0
 51 52  1  0  0  0
 51 53  1  0  0  0
 51 54  1  0  0  0
 40  1  1  0  0  0
  1  2  2  0  0  0
  1  3  1  0  0  0
  3  5  1  0  0  0
  5 29  1  0  0  0
 29 30  1  0  0  0
 30 31  1  0  0  0
 31 32  1  0  0  0
 32 34  1  0  0  0
 34 35  1  0  0  0
 34 36  2  0  0  0
  5  6  1  0  0  0
  6  7  2  0  0  0
  6  8  1  0  0  0
  8 10  1  0  0  0
 10 18  1  0  0  0
 18 19  1  0  0  0
 19 20  1  0  0  0
 20 21  1  0  0  0
 21 23  1  0  0  0
 23 24  1  0  0  0
 23 25  2  0  0  0
 10 11  1  0  0  0
 11 12  2  0  0  0
 11 13  1  0  0  0
 13 14  1  0  0  0
 14 15  1  0  0  0
 14 16  1  0  0  0
 14 17  1  0  0  0
 61 56  1  0  0  0
 67 70  1  0  0  0
 67 71  1  0  0  0
 69 72  1  0  0  0
 65 66  1  0  0  0
 41 44  1  0  0  0
 46 49  1  0  0  0
  3  4  1  0  0  0
 32 33  1  0  0  0
 35 37  1  0  0  0
 35 38  1  0  0  0
 36 39  1  0  0  0
  8  9  1  0  0  0
 21 22  1  0  0  0
 24 26  1  0  0  0
 24 27  1  0  0  0
 25 28  1  0  0  0
M  END
> <minimizedAffinity>
-7.02072

> <CNNscore>
0.2588117421

> <CNNaffinity>
7.8051514626

> <CNN_VS>
2.0200648308

> <CNNaffinity_variance>
0.2514214814

$$$$
[H]N=C(N([H])[H])N([H])C([H])([H])C([H])([H])C([H])([H])[C@@]([H])(C(=O)OC(C([H])([H])[H])(C([H])([H])[H])C([H])([H])[H])N([H])C(=O)[C@@]([H])(N([H])C(=O)[C@@]([H])(N([H])C(=O)[C@]([H])(N([H])C(=O)OC(C([H])([H])[H])(C([H])([H])[H])C([H])([H])[H])C([H])([H])c1c([H])c([H])c([H])c([H])c1[H])C([H])([H])C([H])([H])C([H])([H])N([H])C(=N[H])N([H])[H])C([H])([H])C([H])([H])C([H])([H])N([H])C(=N[H])N([H])[H]


 72 72  0  0  0  0  0  0  0  0999 V2000
   55.6573   -4.3816   -6.1749 C   0  0  0  0  0  0  0  0  0  0  0  0
   56.4997   -3.4093   -6.1554 O   0  0  0  0  0  0  0  0  0  0  0  0
   55.3193   -5.2009   -5.2262 N   0  0  0  0  0  0  0  0  0  0  0  0
   56.1053   -4.5509   -4.2969 H   0  0  0  0  0  0  0  0  0  0  0  0
   54.9579   -6.0874   -4.1855 C   0  0  0  0  0  0  0  0  0  0  0  0
   55.6234   -7.3387   -3.8232 C   0  0  0  0  0  0  0  0  0  0  0  0
   55.1116   -8.4518   -3.8698 O   0  0  0  0  0  0  0  0  0  0  0  0
   56.9989   -7.1803   -3.3865 N   0  0  0  0  0  0  0  0  0  0  0  0
   57.3456   -6.1315   -3.4042 H   0  0  0  0  0  0  0  0  0  0  0  0
   57.9781   -8.0657   -2.9496 C   0  0  0  0  0  0  0  0  0  0  0  0
   58.3102   -7.8439   -1.4871 C   0  0  0  0  0  0  0  0  0  0  0  0
   57.9534   -8.7364   -0.6390 O   0  0  0  0  0  0  0  0  0  0  0  0
   58.9683   -6.7413   -0.9963 O   0  0  0  0  0  0  0  0  0  0  0  0
   58.2853   -5.6194   -0.4605 C   0  0  0  0  0  0  0  0  0  0  0  0
   56.8959   -5.9591    0.0046 C   0  0  0  0  0  0  0  0  0  0  0  0
   58.2565   -4.5269   -1.4838 C   0  0  0  0  0  0  0  0  0  0  0  0
   59.0180   -5.0985    0.7782 C   0  0  0  0  0  0  0  0  0  0  0  0
   59.3088   -7.6512   -3.6299 C   0  0  0  0  0  0  0  0  0  0  0  0
   60.2724   -8.7515   -3.8274 C   0  0  0  0  0  0  0  0  0  0  0  0
   61.0205   -8.4549   -5.1058 C   0  0  0  0  0  0  0  0  0  0  0  0
   62.3796   -8.9258   -4.9913 N   0  0  0  0  0  0  0  0  0  0  0  0
   62.5916   -9.9245   -4.7567 H   0  0  0  0  0  0  0  0  0  0  0  0
   63.3943   -7.9562   -5.2120 C   0  0  0  0  0  0  0  0  0  0  0  0
   63.4974   -6.8486   -4.3301 N   0  0  0  0  0  0  0  0  0  0  0  0
   64.2050   -8.0848   -6.1778 N   0  0  0  0  0  0  0  0  0  0  0  0
   64.4449   -6.3710   -4.1998 H   0  0  0  0  0  0  0  0  0  0  0  0
   62.7496   -6.4278   -3.7746 H   0  0  0  0  0  0  0  0  0  0  0  0
   64.2860   -8.8015   -6.8908 H   0  0  0  0  0  0  0  0  0  0  0  0
   53.4765   -6.3729   -4.2977 C   0  0  0  0  0  0  0  0  0  0  0  0
   52.5902   -5.7579   -3.2933 C   0  0  0  0  0  0  0  0  0  0  0  0
   52.8342   -5.9461   -1.8523 C   0  0  0  0  0  0  0  0  0  0  0  0
   52.2566   -7.1747   -1.2917 N   0  0  0  0  0  0  0  0  0  0  0  0
   51.2568   -7.1918   -0.9191 H   0  0  0  0  0  0  0  0  0  0  0  0
   52.9310   -8.4119   -1.1816 C   0  0  0  0  0  0  0  0  0  0  0  0
   52.3039   -9.6445   -1.5230 N   0  0  0  0  0  0  0  0  0  0  0  0
   54.1667   -8.3955   -0.7640 N   0  0  0  0  0  0  0  0  0  0  0  0
   52.5749  -10.5123   -1.0321 H   0  0  0  0  0  0  0  0  0  0  0  0
   51.5874   -9.6855   -2.2527 H   0  0  0  0  0  0  0  0  0  0  0  0
   54.6212   -7.4935   -0.5264 H   0  0  0  0  0  0  0  0  0  0  0  0
   55.0135   -4.4839   -7.5559 C   0  0  0  0  0  0  0  0  0  0  0  0
   56.0657   -4.8940   -8.4995 N   0  0  0  0  0  0  0  0  0  0  0  0
   56.0758   -4.3916   -9.7965 C   0  0  0  0  0  0  0  0  0  0  0  0
   55.1765   -3.6058  -10.1733 O   0  0  0  0  0  0  0  0  0  0  0  0
   56.7928   -5.5507   -8.1698 H   0  0  0  0  0  0  0  0  0  0  0  0
   57.1469   -4.7572  -10.7844 C   0  0  0  0  0  0  0  0  0  0  0  0
   58.2702   -5.2464  -10.1925 N   0  0  0  0  0  0  0  0  0  0  0  0
   59.3992   -5.7389   -9.5611 C   0  0  0  0  0  0  0  0  0  0  0  0
   59.6149   -5.8315   -8.3429 O   0  0  0  0  0  0  0  0  0  0  0  0
   57.6847   -5.1387   -8.9579 H   0  0  0  0  0  0  0  0  0  0  0  0
   60.4711   -6.2210  -10.3430 O   0  0  0  0  0  0  0  0  0  0  0  0
   61.6279   -6.8422   -9.9424 C   0  0  0  0  0  0  0  0  0  0  0  0
   61.2138   -8.2893   -9.5637 C   0  0  0  0  0  0  0  0  0  0  0  0
   62.6448   -7.0023  -11.0527 C   0  0  0  0  0  0  0  0  0  0  0  0
   62.2668   -6.2768   -8.7235 C   0  0  0  0  0  0  0  0  0  0  0  0
   57.4100   -3.5013  -11.6423 C   0  0  0  0  0  0  0  0  0  0  0  0
   57.0086   -3.9503  -13.0249 C   0  0  0  0  0  0  0  0  0  0  0  0
   57.4962   -3.2654  -14.1319 C   0  0  0  0  0  0  0  0  0  0  0  0
   57.1871   -3.6579  -15.4333 C   0  0  0  0  0  0  0  0  0  0  0  0
   56.3726   -4.7604  -15.6284 C   0  0  0  0  0  0  0  0  0  0  0  0
   55.9020   -5.4240  -14.5245 C   0  0  0  0  0  0  0  0  0  0  0  0
   56.2090   -5.0328  -13.2442 C   0  0  0  0  0  0  0  0  0  0  0  0
   53.8216   -5.3581   -7.5746 C   0  0  0  0  0  0  0  0  0  0  0  0
   52.5361   -4.7320   -8.0643 C   0  0  0  0  0  0  0  0  0  0  0  0
   51.5543   -4.8478   -6.9111 C   0  0  0  0  0  0  0  0  0  0  0  0
   51.1071   -3.6294   -6.3589 N   0  0  0  0  0  0  0  0  0  0  0  0
   51.7672   -3.0933   -5.7011 H   0  0  0  0  0  0  0  0  0  0  0  0
   48.9636   -2.7633   -5.4777 N   0  0  0  0  0  0  0  0  0  0  0  0
   49.8513   -3.0273   -6.5918 C   0  0  0  0  0  0  0  0  0  0  0  0
   49.4984   -2.7252   -7.7867 N   0  0  0  0  0  0  0  0  0  0  0  0
   49.1248   -1.9548   -4.8984 H   0  0  0  0  0  0  0  0  0  0  0  0
   48.1813   -3.4137   -5.3003 H   0  0  0  0  0  0  0  0  0  0  0  0
   50.0600   -2.8748   -8.6379 H   0  0  0  0  0  0  0  0  0  0  0  0
 67 68  1  0  0  0
 68 69  2  0  0  0
 68 65  1  0  0  0
 65 64  1  0  0  0
 64 63  1  0  0  0
 63 62  1  0  0  0
 62 40  1  0  0  0
 40 41  1  0  0  0
 41 42  1  0  0  0
 42 43  2  0  0  0
 42 45  1  0  0  0
 45 55  1  0  0  0
 55 56  1  0  0  0
 56 57  2  0  0  0
 57 58  1  0  0  0
 58 59  2  0  0  0
 59 60  1  0  0  0
 60 61  2  0  0  0
 45 46  1  0  0  0
 46 47  1  0  0  0
 47 48  2  0  0  0
 47 50  1  0  0  0
 50 51  1  0  0  0
 51 52  1  0  0  0
 51 53  1  0  0  0
 51 54  1  0  0  0
 40  1  1  0  0  0
  1  2  2  0  0  0
  1  3  1  0  0  0
  3  5  1  0  0  0
  5 29  1  0  0  0
 29 30  1  0  0  0
 30 31  1  0  0  0
 31 32  1  0  0  0
 32 34  1  0  0  0
 34 35  1  0  0  0
 34 36  2  0  0  0
  5  6  1  0  0  0
  6  7  2  0  0  0
  6  8  1  0  0  0
  8 10  1  0  0  0
 10 18  1  0  0  0
 18 19  1  0  0  0
 19 20  1  0  0  0
 20 21  1  0  0  0
 21 23  1  0  0  0
 23 24  1  0  0  0
 23 25  2  0  0  0
 10 11  1  0  0  0
 11 12  2  0  0  0
 11 13  1  0  0  0
 13 14  1  0  0  0
 14 15  1  0  0  0
 14 16  1  0  0  0
 14 17  1  0  0  0
 61 56  1  0  0  0
 67 70  1  0  0  0
 67 71  1  0  0  0
 69 72  1  0  0  0
 65 66  1  0  0  0
 41 44  1  0  0  0
 46 49  1  0  0  0
  3  4  1  0  0  0
 32 33  1  0  0  0
 35 37  1  0  0  0
 35 38  1  0  0  0
 36 39  1  0  0  0
  8  9  1  0  0  0
 21 22  1  0  0  0
 24 26  1  0  0  0
 24 27  1  0  0  0
 25 28  1  0  0  0
M  END
> <minimizedAffinity>
-6.85441

> <CNNscore>
0.2542501092

> <CNNaffinity>
7.6324677467

> <CNN_VS>
1.9405558109

> <CNNaffinity_variance>
0.4760712981

$$$$
[H]N=C(N([H])[H])N([H])C([H])([H])C([H])([H])C([H])([H])[C@@]([H])(C(=O)OC(C([H])([H])[H])(C([H])([H])[H])C([H])([H])[H])N([H])C(=O)[C@@]([H])(N([H])C(=O)[C@@]([H])(N([H])C(=O)[C@]([H])(N([H])C(=O)OC(C([H])([H])[H])(C([H])([H])[H])C([H])([H])[H])C([H])([H])c1c([H])c([H])c([H])c([H])c1[H])C([H])([H])C([H])([H])C([H])([H])N([H])C(=N[H])N([H])[H])C([H])([H])C([H])([H])C([H])([H])N([H])C(=N[H])N([H])[H]


 72 72  0  0  0  0  0  0  0  0999 V2000
   55.5768   -4.4064  -10.0047 C   0  0  0  0  0  0  0  0  0  0  0  0
   54.8701   -4.0113  -11.0046 O   0  0  0  0  0  0  0  0  0  0  0  0
   56.7606   -4.9393   -9.9889 N   0  0  0  0  0  0  0  0  0  0  0  0
   56.9130   -4.7977  -11.3529 H   0  0  0  0  0  0  0  0  0  0  0  0
   58.0506   -5.5184   -9.9833 C   0  0  0  0  0  0  0  0  0  0  0  0
   58.9102   -5.7437   -8.8213 C   0  0  0  0  0  0  0  0  0  0  0  0
   58.6190   -5.4711   -7.6620 O   0  0  0  0  0  0  0  0  0  0  0  0
   60.1942   -6.3448   -9.1344 N   0  0  0  0  0  0  0  0  0  0  0  0
   60.3278   -6.5556  -10.2106 H   0  0  0  0  0  0  0  0  0  0  0  0
   61.2958   -6.7143   -8.3705 C   0  0  0  0  0  0  0  0  0  0  0  0
   62.5848   -6.1864   -8.9692 C   0  0  0  0  0  0  0  0  0  0  0  0
   62.9046   -6.5598  -10.1530 O   0  0  0  0  0  0  0  0  0  0  0  0
   63.4490   -5.3315   -8.3273 O   0  0  0  0  0  0  0  0  0  0  0  0
   64.6302   -5.7807   -7.6830 C   0  0  0  0  0  0  0  0  0  0  0  0
   65.1819   -7.0359   -8.3012 C   0  0  0  0  0  0  0  0  0  0  0  0
   64.3500   -5.9788   -6.2255 C   0  0  0  0  0  0  0  0  0  0  0  0
   65.7372   -4.7329   -7.8215 C   0  0  0  0  0  0  0  0  0  0  0  0
   61.4835   -8.2439   -8.5448 C   0  0  0  0  0  0  0  0  0  0  0  0
   62.1857   -8.9124   -7.4321 C   0  0  0  0  0  0  0  0  0  0  0  0
   61.5861   -8.3797   -6.1521 C   0  0  0  0  0  0  0  0  0  0  0  0
   60.7773   -9.4026   -5.5344 N   0  0  0  0  0  0  0  0  0  0  0  0
   60.2116  -10.0706   -6.1100 H   0  0  0  0  0  0  0  0  0  0  0  0
   60.7981   -9.4389   -4.1143 C   0  0  0  0  0  0  0  0  0  0  0  0
   60.2483  -10.5619   -3.4421 N   0  0  0  0  0  0  0  0  0  0  0  0
   61.3118   -8.4854   -3.4559 N   0  0  0  0  0  0  0  0  0  0  0  0
   60.6138  -10.8200   -2.4712 H   0  0  0  0  0  0  0  0  0  0  0  0
   59.5148  -11.1881   -3.7807 H   0  0  0  0  0  0  0  0  0  0  0  0
   61.7502   -7.6232   -3.7610 H   0  0  0  0  0  0  0  0  0  0  0  0
   58.8841   -4.8316  -11.0427 C   0  0  0  0  0  0  0  0  0  0  0  0
   58.1691   -4.2309  -12.1831 C   0  0  0  0  0  0  0  0  0  0  0  0
   58.9075   -3.6606  -13.3237 C   0  0  0  0  0  0  0  0  0  0  0  0
   58.0592   -3.2062  -14.4332 N   0  0  0  0  0  0  0  0  0  0  0  0
   57.0359   -2.9491  -14.2732 H   0  0  0  0  0  0  0  0  0  0  0  0
   58.4812   -3.0716  -15.7753 C   0  0  0  0  0  0  0  0  0  0  0  0
   58.6948   -1.7966  -16.3735 N   0  0  0  0  0  0  0  0  0  0  0  0
   58.6853   -4.1627  -16.4606 N   0  0  0  0  0  0  0  0  0  0  0  0
   58.5371   -1.6714  -17.3869 H   0  0  0  0  0  0  0  0  0  0  0  0
   59.0064   -0.9987  -15.8134 H   0  0  0  0  0  0  0  0  0  0  0  0
   58.5377   -5.0886  -16.0162 H   0  0  0  0  0  0  0  0  0  0  0  0
   54.8228   -4.1499   -8.7017 C   0  0  0  0  0  0  0  0  0  0  0  0
   55.4952   -4.9256   -7.6473 N   0  0  0  0  0  0  0  0  0  0  0  0
   54.7537   -5.4926   -6.6160 C   0  0  0  0  0  0  0  0  0  0  0  0
   53.5135   -5.3260   -6.5684 O   0  0  0  0  0  0  0  0  0  0  0  0
   56.5209   -5.0426   -7.7016 H   0  0  0  0  0  0  0  0  0  0  0  0
   55.3926   -6.3182   -5.5358 C   0  0  0  0  0  0  0  0  0  0  0  0
   54.5033   -6.7473   -4.5997 N   0  0  0  0  0  0  0  0  0  0  0  0
   53.6215   -7.2037   -3.6353 C   0  0  0  0  0  0  0  0  0  0  0  0
   53.8208   -8.0619   -2.7619 O   0  0  0  0  0  0  0  0  0  0  0  0
   55.4741   -7.5108   -4.0055 H   0  0  0  0  0  0  0  0  0  0  0  0
   52.3208   -6.6583   -3.5774 O   0  0  0  0  0  0  0  0  0  0  0  0
   51.6963   -6.0093   -2.5413 C   0  0  0  0  0  0  0  0  0  0  0  0
   50.6236   -5.1036   -3.2033 C   0  0  0  0  0  0  0  0  0  0  0  0
   50.9201   -6.9342   -1.6277 C   0  0  0  0  0  0  0  0  0  0  0  0
   52.5601   -5.0930   -1.7490 C   0  0  0  0  0  0  0  0  0  0  0  0
   56.5366   -5.4685   -4.9426 C   0  0  0  0  0  0  0  0  0  0  0  0
   56.8973   -6.2224   -3.6874 C   0  0  0  0  0  0  0  0  0  0  0  0
   56.6806   -5.6279   -2.4496 C   0  0  0  0  0  0  0  0  0  0  0  0
   56.9619   -6.2917   -1.2565 C   0  0  0  0  0  0  0  0  0  0  0  0
   57.4704   -7.5785   -1.3058 C   0  0  0  0  0  0  0  0  0  0  0  0
   57.6764   -8.1490   -2.5357 C   0  0  0  0  0  0  0  0  0  0  0  0
   57.3983   -7.4904   -3.7085 C   0  0  0  0  0  0  0  0  0  0  0  0
   54.6838   -2.7120   -8.3878 C   0  0  0  0  0  0  0  0  0  0  0  0
   53.3531   -2.0768   -8.7197 C   0  0  0  0  0  0  0  0  0  0  0  0
   52.3301   -3.1971   -8.6453 C   0  0  0  0  0  0  0  0  0  0  0  0
   51.6432   -3.3229   -7.4198 N   0  0  0  0  0  0  0  0  0  0  0  0
   52.0500   -3.9778   -6.6705 H   0  0  0  0  0  0  0  0  0  0  0  0
   50.0887   -1.4254   -7.7423 N   0  0  0  0  0  0  0  0  0  0  0  0
   50.4488   -2.6565   -7.0689 C   0  0  0  0  0  0  0  0  0  0  0  0
   49.6936   -3.1378   -6.1515 N   0  0  0  0  0  0  0  0  0  0  0  0
   49.6711   -1.4673   -8.6584 H   0  0  0  0  0  0  0  0  0  0  0  0
   50.2697   -0.5270   -7.2663 H   0  0  0  0  0  0  0  0  0  0  0  0
   49.8669   -4.0034   -5.6195 H   0  0  0  0  0  0  0  0  0  0  0  0
 67 68  1  0  0  0
 68 69  2  0  0  0
 68 65  1  0  0  0
 65 64  1  0  0  0
 64 63  1  0  0  0
 63 62  1  0  0  0
 62 40  1  0  0  0
 40 41  1  0  0  0
 41 42  1  0  0  0
 42 43  2  0  0  0
 42 45  1  0  0  0
 45 55  1  0  0  0
 55 56  1  0  0  0
 56 57  2  0  0  0
 57 58  1  0  0  0
 58 59  2  0  0  0
 59 60  1  0  0  0
 60 61  2  0  0  0
 45 46  1  0  0  0
 46 47  1  0  0  0
 47 48  2  0  0  0
 47 50  1  0  0  0
 50 51  1  0  0  0
 51 52  1  0  0  0
 51 53  1  0  0  0
 51 54  1  0  0  0
 40  1  1  0  0  0
  1  2  2  0  0  0
  1  3  1  0  0  0
  3  5  1  0  0  0
  5 29  1  0  0  0
 29 30  1  0  0  0
 30 31  1  0  0  0
 31 32  1  0  0  0
 32 34  1  0  0  0
 34 35  1  0  0  0
 34 36  2  0  0  0
  5  6  1  0  0  0
  6  7  2  0  0  0
  6  8  1  0  0  0
  8 10  1  0  0  0
 10 18  1  0  0  0
 18 19  1  0  0  0
 19 20  1  0  0  0
 20 21  1  0  0  0
 21 23  1  0  0  0
 23 24  1  0  0  0
 23 25  2  0  0  0
 10 11  1  0  0  0
 11 12  2  0  0  0
 11 13  1  0  0  0
 13 14  1  0  0  0
 14 15  1  0  0  0
 14 16  1  0  0  0
 14 17  1  0  0  0
 61 56  1  0  0  0
 67 70  1  0  0  0
 67 71  1  0  0  0
 69 72  1  0  0  0
 65 66  1  0  0  0
 41 44  1  0  0  0
 46 49  1  0  0  0
  3  4  1  0  0  0
 32 33  1  0  0  0
 35 37  1  0  0  0
 35 38  1  0  0  0
 36 39  1  0  0  0
  8  9  1  0  0  0
 21 22  1  0  0  0
 24 26  1  0  0  0
 24 27  1  0  0  0
 25 28  1  0  0  0
M  END
> <minimizedAffinity>
-6.49705

> <CNNscore>
0.2255474031

> <CNNaffinity>
7.5916519165

> <CNN_VS>
1.7122774124

> <CNNaffinity_variance>
0.1670181304

$$$$
[H]N=C(N([H])[H])N([H])C([H])([H])C([H])([H])C([H])([H])[C@@]([H])(C(=O)OC(C([H])([H])[H])(C([H])([H])[H])C([H])([H])[H])N([H])C(=O)[C@@]([H])(N([H])C(=O)[C@@]([H])(N([H])C(=O)[C@]([H])(N([H])C(=O)OC(C([H])([H])[H])(C([H])([H])[H])C([H])([H])[H])C([H])([H])c1c([H])c([H])c([H])c([H])c1[H])C([H])([H])C([H])([H])C([H])([H])N([H])C(=N[H])N([H])[H])C([H])([H])C([H])([H])C([H])([H])N([H])C(=N[H])N([H])[H]


 72 72  0  0  0  0  0  0  0  0999 V2000
   56.6688   -4.4196   -6.9289 C   0  0  0  0  0  0  0  0  0  0  0  0
   57.0789   -3.2718   -6.5168 O   0  0  0  0  0  0  0  0  0  0  0  0
   55.9003   -5.2831   -6.3379 N   0  0  0  0  0  0  0  0  0  0  0  0
   55.6831   -4.4492   -5.2604 H   0  0  0  0  0  0  0  0  0  0  0  0
   55.0619   -6.2164   -5.6855 C   0  0  0  0  0  0  0  0  0  0  0  0
   54.0516   -5.9314   -4.6667 C   0  0  0  0  0  0  0  0  0  0  0  0
   54.2494   -5.3117   -3.6275 O   0  0  0  0  0  0  0  0  0  0  0  0
   52.7298   -6.4475   -4.9740 N   0  0  0  0  0  0  0  0  0  0  0  0
   52.6798   -6.9723   -5.9449 H   0  0  0  0  0  0  0  0  0  0  0  0
   51.5087   -6.4237   -4.3091 C   0  0  0  0  0  0  0  0  0  0  0  0
   50.7381   -5.1544   -4.6150 C   0  0  0  0  0  0  0  0  0  0  0  0
   49.5680   -5.0155   -4.1106 O   0  0  0  0  0  0  0  0  0  0  0  0
   51.2043   -4.1319   -5.4067 O   0  0  0  0  0  0  0  0  0  0  0  0
   50.8403   -3.9949   -6.7708 C   0  0  0  0  0  0  0  0  0  0  0  0
   52.0324   -3.8131   -7.6697 C   0  0  0  0  0  0  0  0  0  0  0  0
   49.8829   -2.8524   -6.9117 C   0  0  0  0  0  0  0  0  0  0  0  0
   50.1455   -5.2674   -7.2613 C   0  0  0  0  0  0  0  0  0  0  0  0
   51.8113   -6.2395   -2.7992 C   0  0  0  0  0  0  0  0  0  0  0  0
   51.8431   -7.4905   -2.0168 C   0  0  0  0  0  0  0  0  0  0  0  0
   52.5237   -7.1710   -0.7066 C   0  0  0  0  0  0  0  0  0  0  0  0
   53.9139   -6.8665   -0.9453 N   0  0  0  0  0  0  0  0  0  0  0  0
   54.4898   -7.4371   -1.6087 H   0  0  0  0  0  0  0  0  0  0  0  0
   54.4400   -5.7589   -0.2277 C   0  0  0  0  0  0  0  0  0  0  0  0
   55.3445   -5.9928    0.8412 N   0  0  0  0  0  0  0  0  0  0  0  0
   54.1149   -4.5759   -0.5456 N   0  0  0  0  0  0  0  0  0  0  0  0
   56.0556   -5.2372    1.0985 H   0  0  0  0  0  0  0  0  0  0  0  0
   55.4104   -6.8296    1.4245 H   0  0  0  0  0  0  0  0  0  0  0  0
   53.5002   -4.2245   -1.2719 H   0  0  0  0  0  0  0  0  0  0  0  0
   55.9223   -7.3500   -5.1722 C   0  0  0  0  0  0  0  0  0  0  0  0
   57.1716   -6.9912   -4.4771 C   0  0  0  0  0  0  0  0  0  0  0  0
   57.2523   -7.0141   -3.0059 C   0  0  0  0  0  0  0  0  0  0  0  0
   58.0462   -5.9251   -2.4220 N   0  0  0  0  0  0  0  0  0  0  0  0
   59.1120   -5.9732   -2.3984 H   0  0  0  0  0  0  0  0  0  0  0  0
   57.5124   -4.7498   -1.8465 C   0  0  0  0  0  0  0  0  0  0  0  0
   56.6615   -3.8722   -2.5780 N   0  0  0  0  0  0  0  0  0  0  0  0
   57.8135   -4.4905   -0.6040 N   0  0  0  0  0  0  0  0  0  0  0  0
   56.6617   -2.8610   -2.3659 H   0  0  0  0  0  0  0  0  0  0  0  0
   56.0445   -4.2293   -3.3123 H   0  0  0  0  0  0  0  0  0  0  0  0
   58.4256   -5.1388   -0.0733 H   0  0  0  0  0  0  0  0  0  0  0  0
   57.2134   -4.6941   -8.3289 C   0  0  0  0  0  0  0  0  0  0  0  0
   58.2708   -5.7089   -8.1956 N   0  0  0  0  0  0  0  0  0  0  0  0
   59.1591   -5.9342   -9.2419 C   0  0  0  0  0  0  0  0  0  0  0  0
   59.0485   -5.2902  -10.3101 O   0  0  0  0  0  0  0  0  0  0  0  0
   58.3378   -6.2352   -7.3084 H   0  0  0  0  0  0  0  0  0  0  0  0
   60.2730   -6.9370   -9.1395 C   0  0  0  0  0  0  0  0  0  0  0  0
   60.7546   -7.0680   -7.8737 N   0  0  0  0  0  0  0  0  0  0  0  0
   61.2144   -7.2091   -6.5758 C   0  0  0  0  0  0  0  0  0  0  0  0
   60.5625   -7.4994   -5.5610 O   0  0  0  0  0  0  0  0  0  0  0  0
   59.5302   -7.5022   -7.4367 H   0  0  0  0  0  0  0  0  0  0  0  0
   62.5877   -7.0231   -6.3072 O   0  0  0  0  0  0  0  0  0  0  0  0
   63.5668   -7.9622   -6.0973 C   0  0  0  0  0  0  0  0  0  0  0  0
   64.8480   -7.3822   -6.7539 C   0  0  0  0  0  0  0  0  0  0  0  0
   63.9235   -8.1491   -4.6377 C   0  0  0  0  0  0  0  0  0  0  0  0
   63.3407   -9.2778   -6.7546 C   0  0  0  0  0  0  0  0  0  0  0  0
   61.3512   -6.5117  -10.1588 C   0  0  0  0  0  0  0  0  0  0  0  0
   62.2019   -7.7507  -10.2829 C   0  0  0  0  0  0  0  0  0  0  0  0
   63.5861   -7.6350  -10.2272 C   0  0  0  0  0  0  0  0  0  0  0  0
   64.4199   -8.7497  -10.3007 C   0  0  0  0  0  0  0  0  0  0  0  0
   63.8538  -10.0064  -10.4320 C   0  0  0  0  0  0  0  0  0  0  0  0
   62.4867  -10.1009  -10.4841 C   0  0  0  0  0  0  0  0  0  0  0  0
   61.6695   -8.9993  -10.4120 C   0  0  0  0  0  0  0  0  0  0  0  0
   56.1581   -5.0559   -9.2989 C   0  0  0  0  0  0  0  0  0  0  0  0
   55.5740   -3.9229  -10.1110 C   0  0  0  0  0  0  0  0  0  0  0  0
   56.6392   -3.5512  -11.1280 C   0  0  0  0  0  0  0  0  0  0  0  0
   56.6238   -4.2860  -12.3319 N   0  0  0  0  0  0  0  0  0  0  0  0
   56.1037   -5.2268  -12.3501 H   0  0  0  0  0  0  0  0  0  0  0  0
   56.4607   -3.8971  -14.7697 N   0  0  0  0  0  0  0  0  0  0  0  0
   57.2343   -3.8991  -13.5449 C   0  0  0  0  0  0  0  0  0  0  0  0
   58.4707   -3.5603  -13.5591 N   0  0  0  0  0  0  0  0  0  0  0  0
   55.8392   -3.1272  -14.9602 H   0  0  0  0  0  0  0  0  0  0  0  0
   56.5633   -4.6895  -15.4239 H   0  0  0  0  0  0  0  0  0  0  0  0
   59.0980   -3.5315  -12.7419 H   0  0  0  0  0  0  0  0  0  0  0  0
 67 68  1  0  0  0
 68 69  2  0  0  0
 68 65  1  0  0  0
 65 64  1  0  0  0
 64 63  1  0  0  0
 63 62  1  0  0  0
 62 40  1  0  0  0
 40 41  1  0  0  0
 41 42  1  0  0  0
 42 43  2  0  0  0
 42 45  1  0  0  0
 45 55  1  0  0  0
 55 56  1  0  0  0
 56 57  2  0  0  0
 57 58  1  0  0  0
 58 59  2  0  0  0
 59 60  1  0  0  0
 60 61  2  0  0  0
 45 46  1  0  0  0
 46 47  1  0  0  0
 47 48  2  0  0  0
 47 50  1  0  0  0
 50 51  1  0  0  0
 51 52  1  0  0  0
 51 53  1  0  0  0
 51 54  1  0  0  0
 40  1  1  0  0  0
  1  2  2  0  0  0
  1  3  1  0  0  0
  3  5  1  0  0  0
  5 29  1  0  0  0
 29 30  1  0  0  0
 30 31  1  0  0  0
 31 32  1  0  0  0
 32 34  1  0  0  0
 34 35  1  0  0  0
 34 36  2  0  0  0
  5  6  1  0  0  0
  6  7  2  0  0  0
  6  8  1  0  0  0
  8 10  1  0  0  0
 10 18  1  0  0  0
 18 19  1  0  0  0
 19 20  1  0  0  0
 20 21  1  0  0  0
 21 23  1  0  0  0
 23 24  1  0  0  0
 23 25  2  0  0  0
 10 11  1  0  0  0
 11 12  2  0  0  0
 11 13  1  0  0  0
 13 14  1  0  0  0
 14 15  1  0  0  0
 14 16  1  0  0  0
 14 17  1  0  0  0
 61 56  1  0  0  0
 67 70  1  0  0  0
 67 71  1  0  0  0
 69 72  1  0  0  0
 65 66  1  0  0  0
 41 44  1  0  0  0
 46 49  1  0  0  0
  3  4  1  0  0  0
 32 33  1  0  0  0
 35 37  1  0  0  0
 35 38  1  0  0  0
 36 39  1  0  0  0
  8  9  1  0  0  0
 21 22  1  0  0  0
 24 26  1  0  0  0
 24 27  1  0  0  0
 25 28  1  0  0  0
M  END
> <minimizedAffinity>
-6.08786

> <CNNscore>
0.2252952158

> <CNNaffinity>
7.4018731117

> <CNN_VS>
1.6676065922

> <CNNaffinity_variance>
0.7692658901

$$$$
[H]N=C(N([H])[H])N([H])C([H])([H])C([H])([H])C([H])([H])[C@@]([H])(C(=O)OC(C([H])([H])[H])(C([H])([H])[H])C([H])([H])[H])N([H])C(=O)[C@@]([H])(N([H])C(=O)[C@@]([H])(N([H])C(=O)[C@]([H])(N([H])C(=O)OC(C([H])([H])[H])(C([H])([H])[H])C([H])([H])[H])C([H])([H])c1c([H])c([H])c([H])c([H])c1[H])C([H])([H])C([H])([H])C([H])([H])N([H])C(=N[H])N([H])[H])C([H])([H])C([H])([H])C([H])([H])N([H])C(=N[H])N([H])[H]


 72 72  0  0  0  0  0  0  0  0999 V2000
   52.5126   -6.0259   -7.3633 C   0  0  0  0  0  0  0  0  0  0  0  0
   51.4081   -6.6106   -7.6693 O   0  0  0  0  0  0  0  0  0  0  0  0
   53.3345   -5.3648   -8.1201 N   0  0  0  0  0  0  0  0  0  0  0  0
   52.5158   -5.4845   -9.2242 H   0  0  0  0  0  0  0  0  0  0  0  0
   54.2226   -4.6460   -8.9533 C   0  0  0  0  0  0  0  0  0  0  0  0
   55.6562   -4.4428   -8.7454 C   0  0  0  0  0  0  0  0  0  0  0  0
   56.1857   -4.1829   -7.6706 O   0  0  0  0  0  0  0  0  0  0  0  0
   56.4602   -4.5780   -9.9467 N   0  0  0  0  0  0  0  0  0  0  0  0
   55.8669   -4.8282  -10.8444 H   0  0  0  0  0  0  0  0  0  0  0  0
   57.8200   -4.4609  -10.2131 C   0  0  0  0  0  0  0  0  0  0  0  0
   58.0847   -4.3693  -11.7031 C   0  0  0  0  0  0  0  0  0  0  0  0
   59.0222   -3.5951  -12.1089 O   0  0  0  0  0  0  0  0  0  0  0  0
   57.3823   -5.0586  -12.6629 O   0  0  0  0  0  0  0  0  0  0  0  0
   56.6399   -4.4078  -13.6814 C   0  0  0  0  0  0  0  0  0  0  0  0
   55.7487   -3.3234  -13.1412 C   0  0  0  0  0  0  0  0  0  0  0  0
   55.8462   -5.4270  -14.4385 C   0  0  0  0  0  0  0  0  0  0  0  0
   57.5874   -3.7117  -14.6613 C   0  0  0  0  0  0  0  0  0  0  0  0
   58.4742   -5.8249   -9.8713 C   0  0  0  0  0  0  0  0  0  0  0  0
   59.5508   -5.7602   -8.8638 C   0  0  0  0  0  0  0  0  0  0  0  0
   60.7393   -6.4894   -9.4447 C   0  0  0  0  0  0  0  0  0  0  0  0
   61.0812   -7.6077   -8.5993 N   0  0  0  0  0  0  0  0  0  0  0  0
   61.3301   -7.4713   -7.5909 H   0  0  0  0  0  0  0  0  0  0  0  0
   61.0605   -8.8856   -9.2197 C   0  0  0  0  0  0  0  0  0  0  0  0
   61.0419  -10.0496   -8.4072 N   0  0  0  0  0  0  0  0  0  0  0  0
   61.0470   -8.9849  -10.4831 N   0  0  0  0  0  0  0  0  0  0  0  0
   60.6086  -10.9480   -8.7917 H   0  0  0  0  0  0  0  0  0  0  0  0
   61.4038  -10.1466   -7.4562 H   0  0  0  0  0  0  0  0  0  0  0  0
   61.0489   -8.2763  -11.2088 H   0  0  0  0  0  0  0  0  0  0  0  0
   53.6075   -3.2962   -9.2504 C   0  0  0  0  0  0  0  0  0  0  0  0
   52.6801   -2.7392   -8.2492 C   0  0  0  0  0  0  0  0  0  0  0  0
   51.4132   -2.1083   -8.6597 C   0  0  0  0  0  0  0  0  0  0  0  0
   50.4732   -1.8567   -7.5596 N   0  0  0  0  0  0  0  0  0  0  0  0
   50.2751   -0.8639   -7.2219 H   0  0  0  0  0  0  0  0  0  0  0  0
   49.7642   -2.8547   -6.8534 C   0  0  0  0  0  0  0  0  0  0  0  0
   49.1817   -2.6049   -5.5777 N   0  0  0  0  0  0  0  0  0  0  0  0
   49.6443   -4.0266   -7.4136 N   0  0  0  0  0  0  0  0  0  0  0  0
   49.0979   -3.3729   -4.8916 H   0  0  0  0  0  0  0  0  0  0  0  0
   48.8402   -1.6726   -5.3292 H   0  0  0  0  0  0  0  0  0  0  0  0
   50.0622   -4.1995   -8.3475 H   0  0  0  0  0  0  0  0  0  0  0  0
   52.7883   -6.1848   -5.8697 C   0  0  0  0  0  0  0  0  0  0  0  0
   54.1358   -5.6512   -5.6146 N   0  0  0  0  0  0  0  0  0  0  0  0
   55.0968   -6.4453   -4.9976 C   0  0  0  0  0  0  0  0  0  0  0  0
   54.8121   -7.6101   -4.6363 O   0  0  0  0  0  0  0  0  0  0  0  0
   54.3460   -4.6840   -5.9129 H   0  0  0  0  0  0  0  0  0  0  0  0
   56.4939   -5.9543   -4.7453 C   0  0  0  0  0  0  0  0  0  0  0  0
   57.2283   -6.8110   -3.9848 N   0  0  0  0  0  0  0  0  0  0  0  0
   58.0009   -7.6772   -3.2308 C   0  0  0  0  0  0  0  0  0  0  0  0
   59.1802   -8.0123   -3.4207 O   0  0  0  0  0  0  0  0  0  0  0  0
   58.3467   -6.5353   -4.7276 H   0  0  0  0  0  0  0  0  0  0  0  0
   57.4403   -8.2804   -2.0842 O   0  0  0  0  0  0  0  0  0  0  0  0
   58.0676   -8.7681   -0.9647 C   0  0  0  0  0  0  0  0  0  0  0  0
   56.9556   -8.9051    0.1094 C   0  0  0  0  0  0  0  0  0  0  0  0
   58.6184  -10.1675   -1.1406 C   0  0  0  0  0  0  0  0  0  0  0  0
   59.0936   -7.8719   -0.3665 C   0  0  0  0  0  0  0  0  0  0  0  0
   56.3667   -4.5469   -4.1242 C   0  0  0  0  0  0  0  0  0  0  0  0
   56.3735   -4.8326   -2.6435 C   0  0  0  0  0  0  0  0  0  0  0  0
   57.4884   -4.4874   -1.8883 C   0  0  0  0  0  0  0  0  0  0  0  0
   57.5355   -4.6954   -0.5107 C   0  0  0  0  0  0  0  0  0  0  0  0
   56.4417   -5.2606    0.1226 C   0  0  0  0  0  0  0  0  0  0  0  0
   55.3506   -5.5935   -0.6386 C   0  0  0  0  0  0  0  0  0  0  0  0
   55.3095   -5.3872   -1.9959 C   0  0  0  0  0  0  0  0  0  0  0  0
   51.7379   -5.5835   -5.0209 C   0  0  0  0  0  0  0  0  0  0  0  0
   52.0332   -5.5038   -3.5408 C   0  0  0  0  0  0  0  0  0  0  0  0
   51.1300   -6.5327   -2.8830 C   0  0  0  0  0  0  0  0  0  0  0  0
   51.7686   -7.6955   -2.4039 N   0  0  0  0  0  0  0  0  0  0  0  0
   51.7505   -8.5784   -3.0172 H   0  0  0  0  0  0  0  0  0  0  0  0
   52.0663   -6.9794   -0.0545 N   0  0  0  0  0  0  0  0  0  0  0  0
   52.4482   -7.8181   -1.1723 C   0  0  0  0  0  0  0  0  0  0  0  0
   53.4045   -8.6633   -1.0508 N   0  0  0  0  0  0  0  0  0  0  0  0
   51.2544   -7.2223    0.4907 H   0  0  0  0  0  0  0  0  0  0  0  0
   52.6372   -6.1460    0.1596 H   0  0  0  0  0  0  0  0  0  0  0  0
   53.7452   -9.2991   -1.7869 H   0  0  0  0  0  0  0  0  0  0  0  0
 67 68  1  0  0  0
 68 69  2  0  0  0
 68 65  1  0  0  0
 65 64  1  0  0  0
 64 63  1  0  0  0
 63 62  1  0  0  0
 62 40  1  0  0  0
 40 41  1  0  0  0
 41 42  1  0  0  0
 42 43  2  0  0  0
 42 45  1  0  0  0
 45 55  1  0  0  0
 55 56  1  0  0  0
 56 57  2  0  0  0
 57 58  1  0  0  0
 58 59  2  0  0  0
 59 60  1  0  0  0
 60 61  2  0  0  0
 45 46  1  0  0  0
 46 47  1  0  0  0
 47 48  2  0  0  0
 47 50  1  0  0  0
 50 51  1  0  0  0
 51 52  1  0  0  0
 51 53  1  0  0  0
 51 54  1  0  0  0
 40  1  1  0  0  0
  1  2  2  0  0  0
  1  3  1  0  0  0
  3  5  1  0  0  0
  5 29  1  0  0  0
 29 30  1  0  0  0
 30 31  1  0  0  0
 31 32  1  0  0  0
 32 34  1  0  0  0
 34 35  1  0  0  0
 34 36  2  0  0  0
  5  6  1  0  0  0
  6  7  2  0  0  0
  6  8  1  0  0  0
  8 10  1  0  0  0
 10 18  1  0  0  0
 18 19  1  0  0  0
 19 20  1  0  0  0
 20 21  1  0  0  0
 21 23  1  0  0  0
 23 24  1  0  0  0
 23 25  2  0  0  0
 10 11  1  0  0  0
 11 12  2  0  0  0
 11 13  1  0  0  0
 13 14  1  0  0  0
 14 15  1  0  0  0
 14 16  1  0  0  0
 14 17  1  0  0  0
 61 56  1  0  0  0
 67 70  1  0  0  0
 67 71  1  0  0  0
 69 72  1  0  0  0
 65 66  1  0  0  0
 41 44  1  0  0  0
 46 49  1  0  0  0
  3  4  1  0  0  0
 32 33  1  0  0  0
 35 37  1  0  0  0
 35 38  1  0  0  0
 36 39  1  0  0  0
  8  9  1  0  0  0
 21 22  1  0  0  0
 24 26  1  0  0  0
 24 27  1  0  0  0
 25 28  1  0  0  0
M  END
> <minimizedAffinity>
-7.23598

> <CNNscore>
0.2247201353

> <CNNaffinity>
7.4228577614

> <CNN_VS>
1.6680655479

> <CNNaffinity_variance>
1.8579418659

$$$$
[H]N=C(N([H])[H])N([H])C([H])([H])C([H])([H])C([H])([H])[C@@]([H])(C(=O)OC(C([H])([H])[H])(C([H])([H])[H])C([H])([H])[H])N([H])C(=O)[C@@]([H])(N([H])C(=O)[C@@]([H])(N([H])C(=O)[C@]([H])(N([H])C(=O)OC(C([H])([H])[H])(C([H])([H])[H])C([H])([H])[H])C([H])([H])c1c([H])c([H])c([H])c([H])c1[H])C([H])([H])C([H])([H])C([H])([H])N([H])C(=N[H])N([H])[H])C([H])([H])C([H])([H])C([H])([H])N([H])C(=N[H])N([H])[H]


 72 72  0  0  0  0  0  0  0  0999 V2000
   55.5424   -4.3871   -9.9231 C   0  0  0  0  0  0  0  0  0  0  0  0
   54.8335   -3.9839  -10.9183 O   0  0  0  0  0  0  0  0  0  0  0  0
   56.7154   -4.9435   -9.9160 N   0  0  0  0  0  0  0  0  0  0  0  0
   56.8566   -4.8131  -11.2823 H   0  0  0  0  0  0  0  0  0  0  0  0
   57.9935   -5.5483   -9.9199 C   0  0  0  0  0  0  0  0  0  0  0  0
   58.8946   -5.7113   -8.7790 C   0  0  0  0  0  0  0  0  0  0  0  0
   58.6872   -5.2882   -7.6471 O   0  0  0  0  0  0  0  0  0  0  0  0
   60.1110   -6.4456   -9.0774 N   0  0  0  0  0  0  0  0  0  0  0  0
   60.1707   -6.7854  -10.1269 H   0  0  0  0  0  0  0  0  0  0  0  0
   61.2209   -6.8155   -8.3258 C   0  0  0  0  0  0  0  0  0  0  0  0
   62.4929   -6.2081   -8.8839 C   0  0  0  0  0  0  0  0  0  0  0  0
   62.9069   -6.6067  -10.0296 O   0  0  0  0  0  0  0  0  0  0  0  0
   63.2473   -5.2544   -8.2425 O   0  0  0  0  0  0  0  0  0  0  0  0
   64.5260   -5.5325   -7.6952 C   0  0  0  0  0  0  0  0  0  0  0  0
   65.5985   -5.6092   -8.7469 C   0  0  0  0  0  0  0  0  0  0  0  0
   64.4570   -6.8029   -6.9058 C   0  0  0  0  0  0  0  0  0  0  0  0
   64.9531   -4.4041   -6.7536 C   0  0  0  0  0  0  0  0  0  0  0  0
   61.4668   -8.3252   -8.5821 C   0  0  0  0  0  0  0  0  0  0  0  0
   61.6526   -9.1379   -7.3642 C   0  0  0  0  0  0  0  0  0  0  0  0
   61.6821  -10.5833   -7.8020 C   0  0  0  0  0  0  0  0  0  0  0  0
   62.6345  -10.7447   -8.8739 N   0  0  0  0  0  0  0  0  0  0  0  0
   63.5701  -10.2743   -8.8461 H   0  0  0  0  0  0  0  0  0  0  0  0
   62.2212  -11.5700   -9.9540 C   0  0  0  0  0  0  0  0  0  0  0  0
   61.3227  -12.6401   -9.7035 N   0  0  0  0  0  0  0  0  0  0  0  0
   62.6406  -11.3463  -11.1290 N   0  0  0  0  0  0  0  0  0  0  0  0
   60.6851  -12.9820  -10.4905 H   0  0  0  0  0  0  0  0  0  0  0  0
   61.1971  -13.1507   -8.8269 H   0  0  0  0  0  0  0  0  0  0  0  0
   63.2678  -10.6358  -11.4902 H   0  0  0  0  0  0  0  0  0  0  0  0
   58.7967   -4.9540  -11.0559 C   0  0  0  0  0  0  0  0  0  0  0  0
   58.0776   -4.6458  -12.3051 C   0  0  0  0  0  0  0  0  0  0  0  0
   58.2103   -3.3269  -12.9489 C   0  0  0  0  0  0  0  0  0  0  0  0
   59.1290   -3.2975  -14.0945 N   0  0  0  0  0  0  0  0  0  0  0  0
   58.7618   -3.3498  -15.0951 H   0  0  0  0  0  0  0  0  0  0  0  0
   60.5366   -3.2082  -14.0041 C   0  0  0  0  0  0  0  0  0  0  0  0
   61.1952   -1.9841  -13.6929 N   0  0  0  0  0  0  0  0  0  0  0  0
   61.2287   -4.2957  -14.2042 N   0  0  0  0  0  0  0  0  0  0  0  0
   62.1386   -1.7976  -14.0706 H   0  0  0  0  0  0  0  0  0  0  0  0
   60.7481   -1.2836  -13.0955 H   0  0  0  0  0  0  0  0  0  0  0  0
   60.7427   -5.1865  -14.4206 H   0  0  0  0  0  0  0  0  0  0  0  0
   54.8070   -4.1078   -8.6142 C   0  0  0  0  0  0  0  0  0  0  0  0
   55.4859   -4.8762   -7.5586 N   0  0  0  0  0  0  0  0  0  0  0  0
   54.7527   -5.4222   -6.5102 C   0  0  0  0  0  0  0  0  0  0  0  0
   53.5150   -5.2427   -6.4483 O   0  0  0  0  0  0  0  0  0  0  0  0
   56.5096   -5.0040   -7.6248 H   0  0  0  0  0  0  0  0  0  0  0  0
   55.3979   -6.2399   -5.4276 C   0  0  0  0  0  0  0  0  0  0  0  0
   54.5069   -6.7012   -4.5086 N   0  0  0  0  0  0  0  0  0  0  0  0
   53.6236   -7.1903   -3.5618 C   0  0  0  0  0  0  0  0  0  0  0  0
   53.8275   -8.0647   -2.7055 O   0  0  0  0  0  0  0  0  0  0  0  0
   55.4833   -7.4643   -3.9229 H   0  0  0  0  0  0  0  0  0  0  0  0
   52.3151   -6.6639   -3.5031 O   0  0  0  0  0  0  0  0  0  0  0  0
   51.6987   -5.9806   -2.4844 C   0  0  0  0  0  0  0  0  0  0  0  0
   51.0943   -7.0698   -1.5583 C   0  0  0  0  0  0  0  0  0  0  0  0
   52.6593   -5.2071   -1.6060 C   0  0  0  0  0  0  0  0  0  0  0  0
   50.5541   -5.1222   -2.8926 C   0  0  0  0  0  0  0  0  0  0  0  0
   56.5095   -5.3649   -4.8102 C   0  0  0  0  0  0  0  0  0  0  0  0
   56.9852   -6.1991   -3.6476 C   0  0  0  0  0  0  0  0  0  0  0  0
   56.7538   -5.7551   -2.3507 C   0  0  0  0  0  0  0  0  0  0  0  0
   57.1396   -6.5021   -1.2388 C   0  0  0  0  0  0  0  0  0  0  0  0
   57.7698   -7.7197   -1.4314 C   0  0  0  0  0  0  0  0  0  0  0  0
   57.9886   -8.1418   -2.7177 C   0  0  0  0  0  0  0  0  0  0  0  0
   57.6072   -7.4016   -3.8100 C   0  0  0  0  0  0  0  0  0  0  0  0
   54.6844   -2.6649   -8.3167 C   0  0  0  0  0  0  0  0  0  0  0  0
   53.4220   -1.9848   -8.7943 C   0  0  0  0  0  0  0  0  0  0  0  0
   52.2992   -2.9781   -8.5499 C   0  0  0  0  0  0  0  0  0  0  0  0
   51.1590   -2.4690   -7.8940 N   0  0  0  0  0  0  0  0  0  0  0  0
   50.7955   -1.4984   -8.1797 H   0  0  0  0  0  0  0  0  0  0  0  0
   49.1062   -2.6473   -6.5246 N   0  0  0  0  0  0  0  0  0  0  0  0
   50.4279   -3.1232   -6.8784 C   0  0  0  0  0  0  0  0  0  0  0  0
   50.9392   -4.1284   -6.2685 N   0  0  0  0  0  0  0  0  0  0  0  0
   48.3201   -2.8962   -7.1037 H   0  0  0  0  0  0  0  0  0  0  0  0
   48.9983   -2.0595   -5.6824 H   0  0  0  0  0  0  0  0  0  0  0  0
   51.8681   -4.5361   -6.4505 H   0  0  0  0  0  0  0  0  0  0  0  0
 67 68  1  0  0  0
 68 69  2  0  0  0
 68 65  1  0  0  0
 65 64  1  0  0  0
 64 63  1  0  0  0
 63 62  1  0  0  0
 62 40  1  0  0  0
 40 41  1  0  0  0
 41 42  1  0  0  0
 42 43  2  0  0  0
 42 45  1  0  0  0
 45 55  1  0  0  0
 55 56  1  0  0  0
 56 57  2  0  0  0
 57 58  1  0  0  0
 58 59  2  0  0  0
 59 60  1  0  0  0
 60 61  2  0  0  0
 45 46  1  0  0  0
 46 47  1  0  0  0
 47 48  2  0  0  0
 47 50  1  0  0  0
 50 51  1  0  0  0
 51 52  1  0  0  0
 51 53  1  0  0  0
 51 54  1  0  0  0
 40  1  1  0  0  0
  1  2  2  0  0  0
  1  3  1  0  0  0
  3  5  1  0  0  0
  5 29  1  0  0  0
 29 30  1  0  0  0
 30 31  1  0  0  0
 31 32  1  0  0  0
 32 34  1  0  0  0
 34 35  1  0  0  0
 34 36  2  0  0  0
  5  6  1  0  0  0
  6  7  2  0  0  0
  6  8  1  0  0  0
  8 10  1  0  0  0
 10 18  1  0  0  0
 18 19  1  0  0  0
 19 20  1  0  0  0
 20 21  1  0  0  0
 21 23  1  0  0  0
 23 24  1  0  0  0
 23 25  2  0  0  0
 10 11  1  0  0  0
 11 12  2  0  0  0
 11 13  1  0  0  0
 13 14  1  0  0  0
 14 15  1  0  0  0
 14 16  1  0  0  0
 14 17  1  0  0  0
 61 56  1  0  0  0
 67 70  1  0  0  0
 67 71  1  0  0  0
 69 72  1  0  0  0
 65 66  1  0  0  0
 41 44  1  0  0  0
 46 49  1  0  0  0
  3  4  1  0  0  0
 32 33  1  0  0  0
 35 37  1  0  0  0
 35 38  1  0  0  0
 36 39  1  0  0  0
  8  9  1  0  0  0
 21 22  1  0  0  0
 24 26  1  0  0  0
 24 27  1  0  0  0
 25 28  1  0  0  0
M  END
> <minimizedAffinity>
-6.14364

> <CNNscore>
0.2213735580

> <CNNaffinity>
7.6537208557

> <CNN_VS>
1.6943314075

> <CNNaffinity_variance>
0.0714394003

$$$$
[H]N=C(N([H])[H])N([H])C([H])([H])C([H])([H])C([H])([H])[C@@]([H])(C(=O)OC(C([H])([H])[H])(C([H])([H])[H])C([H])([H])[H])N([H])C(=O)[C@@]([H])(N([H])C(=O)[C@@]([H])(N([H])C(=O)[C@]([H])(N([H])C(=O)OC(C([H])([H])[H])(C([H])([H])[H])C([H])([H])[H])C([H])([H])c1c([H])c([H])c([H])c([H])c1[H])C([H])([H])C([H])([H])C([H])([H])N([H])C(=N[H])N([H])[H])C([H])([H])C([H])([H])C([H])([H])N([H])C(=N[H])N([H])[H]


 72 72  0  0  0  0  0  0  0  0999 V2000
   57.1896   -4.5854   -7.3163 C   0  0  0  0  0  0  0  0  0  0  0  0
   57.1308   -3.3181   -7.1015 O   0  0  0  0  0  0  0  0  0  0  0  0
   56.8152   -5.5700   -6.5575 N   0  0  0  0  0  0  0  0  0  0  0  0
   56.3019   -4.7209   -5.5988 H   0  0  0  0  0  0  0  0  0  0  0  0
   56.4034   -6.6349   -5.7233 C   0  0  0  0  0  0  0  0  0  0  0  0
   55.0841   -7.2657   -5.6863 C   0  0  0  0  0  0  0  0  0  0  0  0
   54.8782   -8.4719   -5.6093 O   0  0  0  0  0  0  0  0  0  0  0  0
   53.9730   -6.3330   -5.7442 N   0  0  0  0  0  0  0  0  0  0  0  0
   54.2911   -5.2762   -5.7957 H   0  0  0  0  0  0  0  0  0  0  0  0
   52.5905   -6.4819   -5.7483 C   0  0  0  0  0  0  0  0  0  0  0  0
   51.9896   -6.0217   -7.0620 C   0  0  0  0  0  0  0  0  0  0  0  0
   50.7426   -6.2340   -7.2692 O   0  0  0  0  0  0  0  0  0  0  0  0
   52.6920   -5.3911   -8.0613 O   0  0  0  0  0  0  0  0  0  0  0  0
   52.7143   -3.9802   -8.2065 C   0  0  0  0  0  0  0  0  0  0  0  0
   52.5670   -3.5461   -9.6390 C   0  0  0  0  0  0  0  0  0  0  0  0
   53.9795   -3.4449   -7.6111 C   0  0  0  0  0  0  0  0  0  0  0  0
   51.5313   -3.3552   -7.4634 C   0  0  0  0  0  0  0  0  0  0  0  0
   52.0123   -5.4314   -4.7648 C   0  0  0  0  0  0  0  0  0  0  0  0
   51.2455   -5.9952   -3.6368 C   0  0  0  0  0  0  0  0  0  0  0  0
   52.2317   -6.7310   -2.7605 C   0  0  0  0  0  0  0  0  0  0  0  0
   53.2346   -5.8104   -2.2822 N   0  0  0  0  0  0  0  0  0  0  0  0
   53.9004   -5.3408   -2.9407 H   0  0  0  0  0  0  0  0  0  0  0  0
   53.2583   -5.5906   -0.8789 C   0  0  0  0  0  0  0  0  0  0  0  0
   54.0617   -4.5437   -0.3553 N   0  0  0  0  0  0  0  0  0  0  0  0
   52.5617   -6.3129   -0.1047 N   0  0  0  0  0  0  0  0  0  0  0  0
   53.7876   -4.0891    0.5726 H   0  0  0  0  0  0  0  0  0  0  0  0
   54.9076   -4.1463   -0.7693 H   0  0  0  0  0  0  0  0  0  0  0  0
   51.9344   -7.0863   -0.2975 H   0  0  0  0  0  0  0  0  0  0  0  0
   56.7905   -6.3000   -4.2996 C   0  0  0  0  0  0  0  0  0  0  0  0
   57.4562   -7.3538   -3.5128 C   0  0  0  0  0  0  0  0  0  0  0  0
   58.5776   -7.0317   -2.6127 C   0  0  0  0  0  0  0  0  0  0  0  0
   59.4502   -8.1695   -2.2950 N   0  0  0  0  0  0  0  0  0  0  0  0
   59.1278   -8.9415   -1.6324 H   0  0  0  0  0  0  0  0  0  0  0  0
   60.7562   -8.3571   -2.8017 C   0  0  0  0  0  0  0  0  0  0  0  0
   61.1595   -9.5803   -3.4103 N   0  0  0  0  0  0  0  0  0  0  0  0
   61.5936   -7.3613   -2.7076 N   0  0  0  0  0  0  0  0  0  0  0  0
   62.1442   -9.8865   -3.3453 H   0  0  0  0  0  0  0  0  0  0  0  0
   60.4869  -10.1627   -3.9162 H   0  0  0  0  0  0  0  0  0  0  0  0
   61.2908   -6.4694   -2.2723 H   0  0  0  0  0  0  0  0  0  0  0  0
   57.7884   -4.8515   -8.6957 C   0  0  0  0  0  0  0  0  0  0  0  0
   58.7775   -5.9303   -8.5423 N   0  0  0  0  0  0  0  0  0  0  0  0
   59.7389   -6.1420   -9.5249 C   0  0  0  0  0  0  0  0  0  0  0  0
   59.7524   -5.4298  -10.5548 O   0  0  0  0  0  0  0  0  0  0  0  0
   58.7419   -6.5119   -7.6883 H   0  0  0  0  0  0  0  0  0  0  0  0
   60.7873   -7.2102   -9.3969 C   0  0  0  0  0  0  0  0  0  0  0  0
   61.2670   -7.3340   -8.1297 N   0  0  0  0  0  0  0  0  0  0  0  0
   61.7244   -7.4572   -6.8291 C   0  0  0  0  0  0  0  0  0  0  0  0
   61.0641   -7.4187   -5.7795 O   0  0  0  0  0  0  0  0  0  0  0  0
   59.9908   -7.3255   -7.6297 H   0  0  0  0  0  0  0  0  0  0  0  0
   63.1018   -7.6643   -6.5998 O   0  0  0  0  0  0  0  0  0  0  0  0
   64.0987   -6.7405   -6.4060 C   0  0  0  0  0  0  0  0  0  0  0  0
   65.4284   -7.5108   -6.6242 C   0  0  0  0  0  0  0  0  0  0  0  0
   64.1101   -5.6360   -7.4416 C   0  0  0  0  0  0  0  0  0  0  0  0
   64.1853   -6.1734   -5.0333 C   0  0  0  0  0  0  0  0  0  0  0  0
   61.8845   -6.8847  -10.4328 C   0  0  0  0  0  0  0  0  0  0  0  0
   62.6900   -8.1588  -10.4787 C   0  0  0  0  0  0  0  0  0  0  0  0
   64.0544   -8.1118  -10.2170 C   0  0  0  0  0  0  0  0  0  0  0  0
   64.8411   -9.2626  -10.2106 C   0  0  0  0  0  0  0  0  0  0  0  0
   64.2471  -10.4857  -10.4715 C   0  0  0  0  0  0  0  0  0  0  0  0
   62.8998  -10.5124  -10.7263 C   0  0  0  0  0  0  0  0  0  0  0  0
   62.1292   -9.3755  -10.7321 C   0  0  0  0  0  0  0  0  0  0  0  0
   56.7651   -5.1226   -9.7274 C   0  0  0  0  0  0  0  0  0  0  0  0
   56.1619   -3.9163  -10.4096 C   0  0  0  0  0  0  0  0  0  0  0  0
   56.3137   -4.1653  -11.9003 C   0  0  0  0  0  0  0  0  0  0  0  0
   57.6184   -4.4649  -12.3445 N   0  0  0  0  0  0  0  0  0  0  0  0
   58.1370   -5.2892  -11.8890 H   0  0  0  0  0  0  0  0  0  0  0  0
   59.7112   -3.4089  -13.1359 N   0  0  0  0  0  0  0  0  0  0  0  0
   58.3270   -3.7768  -13.3536 C   0  0  0  0  0  0  0  0  0  0  0  0
   57.7413   -3.4730  -14.4528 N   0  0  0  0  0  0  0  0  0  0  0  0
   60.4313   -4.1040  -13.2523 H   0  0  0  0  0  0  0  0  0  0  0  0
   59.9305   -2.4371  -12.8638 H   0  0  0  0  0  0  0  0  0  0  0  0
   56.7639   -3.6916  -14.6963 H   0  0  0  0  0  0  0  0  0  0  0  0
 67 68  1  0  0  0
 68 69  2  0  0  0
 68 65  1  0  0  0
 65 64  1  0  0  0
 64 63  1  0  0  0
 63 62  1  0  0  0
 62 40  1  0  0  0
 40 41  1  0  0  0
 41 42  1  0  0  0
 42 43  2  0  0  0
 42 45  1  0  0  0
 45 55  1  0  0  0
 55 56  1  0  0  0
 56 57  2  0  0  0
 57 58  1  0  0  0
 58 59  2  0  0  0
 59 60  1  0  0  0
 60 61  2  0  0  0
 45 46  1  0  0  0
 46 47  1  0  0  0
 47 48  2  0  0  0
 47 50  1  0  0  0
 50 51  1  0  0  0
 51 52  1  0  0  0
 51 53  1  0  0  0
 51 54  1  0  0  0
 40  1  1  0  0  0
  1  2  2  0  0  0
  1  3  1  0  0  0
  3  5  1  0  0  0
  5 29  1  0  0  0
 29 30  1  0  0  0
 30 31  1  0  0  0
 31 32  1  0  0  0
 32 34  1  0  0  0
 34 35  1  0  0  0
 34 36  2  0  0  0
  5  6  1  0  0  0
  6  7  2  0  0  0
  6  8  1  0  0  0
  8 10  1  0  0  0
 10 18  1  0  0  0
 18 19  1  0  0  0
 19 20  1  0  0  0
 20 21  1  0  0  0
 21 23  1  0  0  0
 23 24  1  0  0  0
 23 25  2  0  0  0
 10 11  1  0  0  0
 11 12  2  0  0  0
 11 13  1  0  0  0
 13 14  1  0  0  0
 14 15  1  0  0  0
 14 16  1  0  0  0
 14 17  1  0  0  0
 61 56  1  0  0  0
 67 70  1  0  0  0
 67 71  1  0  0  0
 69 72  1  0  0  0
 65 66  1  0  0  0
 41 44  1  0  0  0
 46 49  1  0  0  0
  3  4  1  0  0  0
 32 33  1  0  0  0
 35 37  1  0  0  0
 35 38  1  0  0  0
 36 39  1  0  0  0
  8  9  1  0  0  0
 21 22  1  0  0  0
 24 26  1  0  0  0
 24 27  1  0  0  0
 25 28  1  0  0  0
M  END
> <minimizedAffinity>
-5.92088

> <CNNscore>
0.2130886465

> <CNNaffinity>
7.0465011597

> <CNN_VS>
1.5015293360

> <CNNaffinity_variance>
1.0074439049

$$$$
[H]OC(=O)[C@@]([H])(N([H])C(=O)[C@@]([H])(N([H])C(=O)[C@@]([H])(N([H])C(=O)[C@@]([H])(N([H])C(=O)[C@@]([H])(N([H])[H])C([H])([H])c1c([H])c([H])c([H])c([H])c1[H])C([H])([H])c1c([H])c([H])c([H])c([H])c1[H])C([H])([H])C([H])(C([H])([H])[H])C([H])([H])[H])C([H])([H])C([H])([H])C([H])([H])C([H])([H])N([H])[H])C([H])([H])c1c([H])n([H])c2c([H])c([H])c([H])c([H])c12


 64 67  0  0  0  0  0  0  0  0999 V2000
   55.0062   -5.1012   -7.0262 C   0  0  0  0  0  0  0  0  0  0  0  0
   54.8318   -5.9586   -5.8931 C   0  0  0  0  0  0  0  0  0  0  0  0
   54.0983   -7.0202   -6.1630 O   0  0  0  0  0  0  0  0  0  0  0  0
   55.2337   -5.9616   -4.5798 N   0  0  0  0  0  0  0  0  0  0  0  0
   55.9117   -5.1680   -4.3044 H   0  0  0  0  0  0  0  0  0  0  0  0
   54.9880   -6.8310   -3.4601 C   0  0  0  0  0  0  0  0  0  0  0  0
   53.8366   -6.4009   -2.6552 C   0  0  0  0  0  0  0  0  0  0  0  0
   53.9999   -5.3919   -1.8908 O   0  0  0  0  0  0  0  0  0  0  0  0
   52.5806   -7.0205   -2.6723 N   0  0  0  0  0  0  0  0  0  0  0  0
   52.3888   -7.8642   -3.2932 H   0  0  0  0  0  0  0  0  0  0  0  0
   51.4713   -6.5856   -1.8707 C   0  0  0  0  0  0  0  0  0  0  0  0
   50.8681   -7.7696   -1.1666 C   0  0  0  0  0  0  0  0  0  0  0  0
   49.8105   -7.6113   -0.3041 O   0  0  0  0  0  0  0  0  0  0  0  0
   51.3272   -8.9291   -1.3587 O   0  0  0  0  0  0  0  0  0  0  0  0
   48.9947   -8.1984   -0.4151 H   0  0  0  0  0  0  0  0  0  0  0  0
   50.4297   -5.7575   -2.5369 C   0  0  0  0  0  0  0  0  0  0  0  0
   50.5776   -5.5309   -3.9792 C   0  0  0  0  0  0  0  0  0  0  0  0
   51.2714   -6.3882   -4.8501 C   0  0  0  0  0  0  0  0  0  0  0  0
   51.1838   -5.8902   -6.0786 N   0  0  0  0  0  0  0  0  0  0  0  0
   50.4693   -4.7528   -6.0462 C   0  0  0  0  0  0  0  0  0  0  0  0
   50.1204   -3.8793   -7.0570 C   0  0  0  0  0  0  0  0  0  0  0  0
   49.3809   -2.7457   -6.8029 C   0  0  0  0  0  0  0  0  0  0  0  0
   48.9971   -2.5034   -5.5056 C   0  0  0  0  0  0  0  0  0  0  0  0
   49.3353   -3.3694   -4.4687 C   0  0  0  0  0  0  0  0  0  0  0  0
   50.0710   -4.4979   -4.7342 C   0  0  0  0  0  0  0  0  0  0  0  0
   51.5855   -6.2695   -6.9866 H   0  0  0  0  0  0  0  0  0  0  0  0
   56.1167   -7.4499   -2.7285 C   0  0  0  0  0  0  0  0  0  0  0  0
   56.7498   -6.7434   -1.6026 C   0  0  0  0  0  0  0  0  0  0  0  0
   57.8561   -5.7856   -2.0424 C   0  0  0  0  0  0  0  0  0  0  0  0
   57.4941   -4.3670   -1.7296 C   0  0  0  0  0  0  0  0  0  0  0  0
   56.6385   -3.7859   -2.7525 N   0  0  0  0  0  0  0  0  0  0  0  0
   57.1313   -3.5030   -3.6112 H   0  0  0  0  0  0  0  0  0  0  0  0
   56.1402   -2.9619   -2.3545 H   0  0  0  0  0  0  0  0  0  0  0  0
   56.2060   -5.5202   -7.7985 N   0  0  0  0  0  0  0  0  0  0  0  0
   57.4463   -4.9159   -7.8770 C   0  0  0  0  0  0  0  0  0  0  0  0
   57.5823   -3.8737   -7.1431 O   0  0  0  0  0  0  0  0  0  0  0  0
   56.0490   -6.4247   -8.3537 H   0  0  0  0  0  0  0  0  0  0  0  0
   58.5936   -5.3214   -8.7012 C   0  0  0  0  0  0  0  0  0  0  0  0
   59.5851   -6.0972   -7.9960 N   0  0  0  0  0  0  0  0  0  0  0  0
   60.8328   -6.5039   -8.5393 C   0  0  0  0  0  0  0  0  0  0  0  0
   61.0978   -6.1255   -9.7159 O   0  0  0  0  0  0  0  0  0  0  0  0
   59.3734   -6.3756   -7.0170 H   0  0  0  0  0  0  0  0  0  0  0  0
   61.7828   -7.3360   -7.7683 C   0  0  0  0  0  0  0  0  0  0  0  0
   61.4732   -8.7257   -7.9155 N   0  0  0  0  0  0  0  0  0  0  0  0
   60.4431   -8.9038   -7.9755 H   0  0  0  0  0  0  0  0  0  0  0  0
   61.8201   -9.2251   -7.0471 H   0  0  0  0  0  0  0  0  0  0  0  0
   63.2355   -7.1124   -8.1114 C   0  0  0  0  0  0  0  0  0  0  0  0
   63.8715   -6.1878   -7.1324 C   0  0  0  0  0  0  0  0  0  0  0  0
   64.4106   -4.9765   -7.5433 C   0  0  0  0  0  0  0  0  0  0  0  0
   64.9783   -4.1091   -6.6084 C   0  0  0  0  0  0  0  0  0  0  0  0
   65.0260   -4.4137   -5.2699 C   0  0  0  0  0  0  0  0  0  0  0  0
   64.4877   -5.6169   -4.8797 C   0  0  0  0  0  0  0  0  0  0  0  0
   63.9129   -6.5042   -5.8003 C   0  0  0  0  0  0  0  0  0  0  0  0
   58.3941   -5.7907  -10.0709 C   0  0  0  0  0  0  0  0  0  0  0  0
   57.7081   -4.9694  -11.0505 C   0  0  0  0  0  0  0  0  0  0  0  0
   58.4718   -4.5042  -12.1323 C   0  0  0  0  0  0  0  0  0  0  0  0
   57.9687   -3.7111  -13.1334 C   0  0  0  0  0  0  0  0  0  0  0  0
   56.6371   -3.3737  -13.0364 C   0  0  0  0  0  0  0  0  0  0  0  0
   55.8557   -3.8181  -11.9775 C   0  0  0  0  0  0  0  0  0  0  0  0
   56.3887   -4.6070  -10.9972 C   0  0  0  0  0  0  0  0  0  0  0  0
   54.0834   -4.7148   -8.0578 C   0  0  0  0  0  0  0  0  0  0  0  0
   52.7524   -3.3856   -9.6983 C   0  0  0  0  0  0  0  0  0  0  0  0
   53.4664   -3.4665   -8.4076 C   0  0  0  0  0  0  0  0  0  0  0  0
   54.6231   -2.4241   -8.5268 C   0  0  0  0  0  0  0  0  0  0  0  0
 62 63  1  0  0  0
 63 64  1  0  0  0
 63 61  1  0  0  0
 61  1  1  0  0  0
  1 34  1  0  0  0
 34 35  1  0  0  0
 35 36  2  0  0  0
 35 38  1  0  0  0
 38 54  1  0  0  0
 54 55  1  0  0  0
 55 56  2  0  0  0
 56 57  1  0  0  0
 57 58  2  0  0  0
 58 59  1  0  0  0
 59 60  2  0  0  0
 38 39  1  0  0  0
 39 40  1  0  0  0
 40 41  2  0  0  0
 40 43  1  0  0  0
 43 44  1  0  0  0
 43 47  1  0  0  0
 47 48  1  0  0  0
 48 49  2  0  0  0
 49 50  1  0  0  0
 50 51  2  0  0  0
 51 52  1  0  0  0
 52 53  2  0  0  0
  1  2  1  0  0  0
  2  3  2  0  0  0
  2  4  1  0  0  0
  4  6  1  0  0  0
  6 27  1  0  0  0
 27 28  1  0  0  0
 28 29  1  0  0  0
 29 30  1  0  0  0
 30 31  1  0  0  0
  6  7  1  0  0  0
  7  8  2  0  0  0
  7  9  1  0  0  0
  9 11  1  0  0  0
 11 16  1  0  0  0
 16 17  1  0  0  0
 17 18  2  0  0  0
 18 19  1  0  0  0
 19 20  1  0  0  0
 20 21  2  0  0  0
 21 22  1  0  0  0
 22 23  2  0  0  0
 23 24  1  0  0  0
 24 25  2  0  0  0
 11 12  1  0  0  0
 12 13  1  0  0  0
 12 14  2  0  0  0
 60 55  1  0  0  0
 53 48  1  0  0  0
 25 17  1  0  0  0
 25 20  1  0  0  0
 34 37  1  0  0  0
 39 42  1  0  0  0
 44 45  1  0  0  0
 44 46  1  0  0  0
  4  5  1  0  0  0
 31 32  1  0  0  0
 31 33  1  0  0  0
  9 10  1  0  0  0
 19 26  1  0  0  0
 13 15  1  0  0  0
M  END
> <minimizedAffinity>
-9.15648

> <CNNscore>
0.2792600691

> <CNNaffinity>
7.5665879250

> <CNN_VS>
2.1130459309

> <CNNaffinity_variance>
0.9292319417

$$$$
[H]OC(=O)[C@@]([H])(N([H])C(=O)[C@@]([H])(N([H])C(=O)[C@@]([H])(N([H])C(=O)[C@@]([H])(N([H])C(=O)[C@@]([H])(N([H])[H])C([H])([H])c1c([H])c([H])c([H])c([H])c1[H])C([H])([H])c1c([H])c([H])c([H])c([H])c1[H])C([H])([H])C([H])(C([H])([H])[H])C([H])([H])[H])C([H])([H])C([H])([H])C([H])([H])C([H])([H])N([H])[H])C([H])([H])c1c([H])n([H])c2c([H])c([H])c([H])c([H])c12


 64 67  0  0  0  0  0  0  0  0999 V2000
   55.5784   -4.3233   -8.2500 C   0  0  0  0  0  0  0  0  0  0  0  0
   56.8900   -4.5742   -8.7657 C   0  0  0  0  0  0  0  0  0  0  0  0
   57.8197   -4.5534   -7.8313 O   0  0  0  0  0  0  0  0  0  0  0  0
   57.4393   -4.8325   -9.9978 N   0  0  0  0  0  0  0  0  0  0  0  0
   56.7291   -4.9521  -10.8020 H   0  0  0  0  0  0  0  0  0  0  0  0
   58.7827   -5.0311  -10.4728 C   0  0  0  0  0  0  0  0  0  0  0  0
   58.9585   -4.5932  -11.8642 C   0  0  0  0  0  0  0  0  0  0  0  0
   57.9353   -4.6362  -12.6259 O   0  0  0  0  0  0  0  0  0  0  0  0
   60.1662   -4.1343  -12.4052 N   0  0  0  0  0  0  0  0  0  0  0  0
   61.0499   -4.0758  -11.8138 H   0  0  0  0  0  0  0  0  0  0  0  0
   60.3151   -3.7178  -13.7714 C   0  0  0  0  0  0  0  0  0  0  0  0
   61.3008   -4.6176  -14.4643 C   0  0  0  0  0  0  0  0  0  0  0  0
   62.1683   -5.3997  -13.7410 O   0  0  0  0  0  0  0  0  0  0  0  0
   61.3451   -4.6664  -15.7243 O   0  0  0  0  0  0  0  0  0  0  0  0
   62.2406   -6.3843  -13.9603 H   0  0  0  0  0  0  0  0  0  0  0  0
   60.6187   -2.2820  -14.0189 C   0  0  0  0  0  0  0  0  0  0  0  0
   61.9953   -1.8379  -13.7719 C   0  0  0  0  0  0  0  0  0  0  0  0
   63.1208   -2.3220  -14.4600 C   0  0  0  0  0  0  0  0  0  0  0  0
   64.1930   -1.6873  -13.9989 N   0  0  0  0  0  0  0  0  0  0  0  0
   63.8178   -0.8176  -13.0460 C   0  0  0  0  0  0  0  0  0  0  0  0
   64.5646    0.0510  -12.2749 C   0  0  0  0  0  0  0  0  0  0  0  0
   63.9747    0.8609  -11.3302 C   0  0  0  0  0  0  0  0  0  0  0  0
   62.6118    0.7803  -11.1721 C   0  0  0  0  0  0  0  0  0  0  0  0
   61.8364   -0.0866  -11.9380 C   0  0  0  0  0  0  0  0  0  0  0  0
   62.4351   -0.8878  -12.8787 C   0  0  0  0  0  0  0  0  0  0  0  0
   65.2110   -1.7947  -14.2849 H   0  0  0  0  0  0  0  0  0  0  0  0
   59.5631   -6.2141  -10.0443 C   0  0  0  0  0  0  0  0  0  0  0  0
   60.6241   -6.0783   -9.0325 C   0  0  0  0  0  0  0  0  0  0  0  0
   61.7899   -7.0409   -9.2543 C   0  0  0  0  0  0  0  0  0  0  0  0
   62.5731   -6.6638  -10.4732 C   0  0  0  0  0  0  0  0  0  0  0  0
   62.3768   -7.6106  -11.5601 N   0  0  0  0  0  0  0  0  0  0  0  0
   62.9002   -8.4916  -11.4587 H   0  0  0  0  0  0  0  0  0  0  0  0
   62.6383   -7.1568  -12.4608 H   0  0  0  0  0  0  0  0  0  0  0  0
   55.5051   -4.7442   -6.8256 N   0  0  0  0  0  0  0  0  0  0  0  0
   54.6218   -5.6174   -6.2196 C   0  0  0  0  0  0  0  0  0  0  0  0
   53.7810   -6.1677   -7.0154 O   0  0  0  0  0  0  0  0  0  0  0  0
   56.2634   -4.2902   -6.2175 H   0  0  0  0  0  0  0  0  0  0  0  0
   54.5361   -5.9644   -4.7940 C   0  0  0  0  0  0  0  0  0  0  0  0
   53.2166   -6.3518   -4.3567 N   0  0  0  0  0  0  0  0  0  0  0  0
   52.5275   -5.7794   -3.2545 C   0  0  0  0  0  0  0  0  0  0  0  0
   53.1083   -4.8406   -2.6387 O   0  0  0  0  0  0  0  0  0  0  0  0
   52.7322   -7.1015   -4.8896 H   0  0  0  0  0  0  0  0  0  0  0  0
   51.1908   -6.2587   -2.8390 C   0  0  0  0  0  0  0  0  0  0  0  0
   51.2273   -6.7619   -1.4995 N   0  0  0  0  0  0  0  0  0  0  0  0
   52.1270   -7.2497   -1.2779 H   0  0  0  0  0  0  0  0  0  0  0  0
   50.4567   -7.4840   -1.4072 H   0  0  0  0  0  0  0  0  0  0  0  0
   50.0915   -5.2307   -2.9528 C   0  0  0  0  0  0  0  0  0  0  0  0
   49.9582   -4.7555   -4.3579 C   0  0  0  0  0  0  0  0  0  0  0  0
   49.5074   -3.4726   -4.6361 C   0  0  0  0  0  0  0  0  0  0  0  0
   49.4148   -3.0336   -5.9580 C   0  0  0  0  0  0  0  0  0  0  0  0
   49.7588   -3.8385   -7.0165 C   0  0  0  0  0  0  0  0  0  0  0  0
   50.2035   -5.1059   -6.7237 C   0  0  0  0  0  0  0  0  0  0  0  0
   50.3044   -5.5687   -5.4044 C   0  0  0  0  0  0  0  0  0  0  0  0
   55.5857   -6.7593   -4.1595 C   0  0  0  0  0  0  0  0  0  0  0  0
   56.5644   -6.1432   -3.2835 C   0  0  0  0  0  0  0  0  0  0  0  0
   57.7619   -6.8461   -3.0794 C   0  0  0  0  0  0  0  0  0  0  0  0
   58.7785   -6.3989   -2.2725 C   0  0  0  0  0  0  0  0  0  0  0  0
   58.5752   -5.1900   -1.6449 C   0  0  0  0  0  0  0  0  0  0  0  0
   57.4005   -4.4715   -1.8266 C   0  0  0  0  0  0  0  0  0  0  0  0
   56.4082   -4.9460   -2.6376 C   0  0  0  0  0  0  0  0  0  0  0  0
   54.7777   -3.1302   -8.2702 C   0  0  0  0  0  0  0  0  0  0  0  0
   52.4637   -2.2485   -8.5833 C   0  0  0  0  0  0  0  0  0  0  0  0
   53.7647   -2.6413   -9.1626 C   0  0  0  0  0  0  0  0  0  0  0  0
   53.4293   -3.8186  -10.1321 C   0  0  0  0  0  0  0  0  0  0  0  0
 62 63  1  0  0  0
 63 64  1  0  0  0
 63 61  1  0  0  0
 61  1  1  0  0  0
  1 34  1  0  0  0
 34 35  1  0  0  0
 35 36  2  0  0  0
 35 38  1  0  0  0
 38 54  1  0  0  0
 54 55  1  0  0  0
 55 56  2  0  0  0
 56 57  1  0  0  0
 57 58  2  0  0  0
 58 59  1  0  0  0
 59 60  2  0  0  0
 38 39  1  0  0  0
 39 40  1  0  0  0
 40 41  2  0  0  0
 40 43  1  0  0  0
 43 44  1  0  0  0
 43 47  1  0  0  0
 47 48  1  0  0  0
 48 49  2  0  0  0
 49 50  1  0  0  0
 50 51  2  0  0  0
 51 52  1  0  0  0
 52 53  2  0  0  0
  1  2  1  0  0  0
  2  3  2  0  0  0
  2  4  1  0  0  0
  4  6  1  0  0  0
  6 27  1  0  0  0
 27 28  1  0  0  0
 28 29  1  0  0  0
 29 30  1  0  0  0
 30 31  1  0  0  0
  6  7  1  0  0  0
  7  8  2  0  0  0
  7  9  1  0  0  0
  9 11  1  0  0  0
 11 16  1  0  0  0
 16 17  1  0  0  0
 17 18  2  0  0  0
 18 19  1  0  0  0
 19 20  1  0  0  0
 20 21  2  0  0  0
 21 22  1  0  0  0
 22 23  2  0  0  0
 23 24  1  0  0  0
 24 25  2  0  0  0
 11 12  1  0  0  0
 12 13  1  0  0  0
 12 14  2  0  0  0
 60 55  1  0  0  0
 53 48  1  0  0  0
 25 17  1  0  0  0
 25 20  1  0  0  0
 34 37  1  0  0  0
 39 42  1  0  0  0
 44 45  1  0  0  0
 44 46  1  0  0  0
  4  5  1  0  0  0
 31 32  1  0  0  0
 31 33  1  0  0  0
  9 10  1  0  0  0
 19 26  1  0  0  0
 13 15  1  0  0  0
M  END
> <minimizedAffinity>
-7.74346

> <CNNscore>
0.1568404734

> <CNNaffinity>
6.9019775391

> <CNN_VS>
1.0825093985

> <CNNaffinity_variance>
0.4832855761

$$$$
[H]OC(=O)[C@@]([H])(N([H])C(=O)[C@@]([H])(N([H])C(=O)[C@@]([H])(N([H])C(=O)[C@@]([H])(N([H])C(=O)[C@@]([H])(N([H])[H])C([H])([H])c1c([H])c([H])c([H])c([H])c1[H])C([H])([H])c1c([H])c([H])c([H])c([H])c1[H])C([H])([H])C([H])(C([H])([H])[H])C([H])([H])[H])C([H])([H])C([H])([H])C([H])([H])C([H])([H])N([H])[H])C([H])([H])c1c([H])n([H])c2c([H])c([H])c([H])c([H])c12


 64 67  0  0  0  0  0  0  0  0999 V2000
   55.4849   -5.1602   -6.7088 C   0  0  0  0  0  0  0  0  0  0  0  0
   55.3742   -5.8092   -5.4376 C   0  0  0  0  0  0  0  0  0  0  0  0
   55.0768   -7.0893   -5.5410 O   0  0  0  0  0  0  0  0  0  0  0  0
   55.4970   -5.4393   -4.1206 N   0  0  0  0  0  0  0  0  0  0  0  0
   55.8258   -4.4242   -3.9566 H   0  0  0  0  0  0  0  0  0  0  0  0
   55.3264   -6.1264   -2.8682 C   0  0  0  0  0  0  0  0  0  0  0  0
   54.0073   -5.8844   -2.2681 C   0  0  0  0  0  0  0  0  0  0  0  0
   53.9142   -4.9343   -1.4209 O   0  0  0  0  0  0  0  0  0  0  0  0
   52.8537   -6.6217   -2.5634 N   0  0  0  0  0  0  0  0  0  0  0  0
   52.8742   -7.4232   -3.2643 H   0  0  0  0  0  0  0  0  0  0  0  0
   51.5759   -6.3704   -1.9582 C   0  0  0  0  0  0  0  0  0  0  0  0
   51.2964   -7.4246   -0.9229 C   0  0  0  0  0  0  0  0  0  0  0  0
   50.0562   -7.5277   -0.3410 O   0  0  0  0  0  0  0  0  0  0  0  0
   52.2008   -8.2318   -0.5728 O   0  0  0  0  0  0  0  0  0  0  0  0
   49.6013   -8.4305   -0.3117 H   0  0  0  0  0  0  0  0  0  0  0  0
   50.4145   -6.1777   -2.8687 C   0  0  0  0  0  0  0  0  0  0  0  0
   50.6949   -5.6390   -4.2045 C   0  0  0  0  0  0  0  0  0  0  0  0
   51.5867   -6.2187   -5.1228 C   0  0  0  0  0  0  0  0  0  0  0  0
   51.5761   -5.4850   -6.2303 N   0  0  0  0  0  0  0  0  0  0  0  0
   50.7230   -4.4588   -6.0743 C   0  0  0  0  0  0  0  0  0  0  0  0
   50.3822   -3.4324   -6.9327 C   0  0  0  0  0  0  0  0  0  0  0  0
   49.4799   -2.4591   -6.5656 C   0  0  0  0  0  0  0  0  0  0  0  0
   48.9237   -2.5354   -5.3111 C   0  0  0  0  0  0  0  0  0  0  0  0
   49.2501   -3.5609   -4.4273 C   0  0  0  0  0  0  0  0  0  0  0  0
   50.1493   -4.5274   -4.8050 C   0  0  0  0  0  0  0  0  0  0  0  0
   52.1232   -5.6219   -7.1311 H   0  0  0  0  0  0  0  0  0  0  0  0
   56.4647   -6.2768   -1.9333 C   0  0  0  0  0  0  0  0  0  0  0  0
   57.8001   -5.7782   -2.3015 C   0  0  0  0  0  0  0  0  0  0  0  0
   58.8661   -6.8728   -2.3124 C   0  0  0  0  0  0  0  0  0  0  0  0
   58.9005   -7.5758   -3.6337 C   0  0  0  0  0  0  0  0  0  0  0  0
   59.7613   -8.7482   -3.6036 N   0  0  0  0  0  0  0  0  0  0  0  0
   60.7684   -8.5399   -3.6537 H   0  0  0  0  0  0  0  0  0  0  0  0
   59.5020   -9.3835   -4.3878 H   0  0  0  0  0  0  0  0  0  0  0  0
   56.6623   -5.6896   -7.4470 N   0  0  0  0  0  0  0  0  0  0  0  0
   57.8022   -5.0262   -7.8596 C   0  0  0  0  0  0  0  0  0  0  0  0
   57.8598   -3.7931   -7.5137 O   0  0  0  0  0  0  0  0  0  0  0  0
   56.5805   -6.7367   -7.6656 H   0  0  0  0  0  0  0  0  0  0  0  0
   58.9219   -5.5650   -8.6446 C   0  0  0  0  0  0  0  0  0  0  0  0
   59.7542   -6.4992   -7.9257 N   0  0  0  0  0  0  0  0  0  0  0  0
   61.1239   -6.7477   -8.2077 C   0  0  0  0  0  0  0  0  0  0  0  0
   61.6508   -6.0721   -9.1371 O   0  0  0  0  0  0  0  0  0  0  0  0
   59.3217   -7.0261   -7.1409 H   0  0  0  0  0  0  0  0  0  0  0  0
   61.9034   -7.7536   -7.4529 C   0  0  0  0  0  0  0  0  0  0  0  0
   61.5118   -7.7685   -6.0763 N   0  0  0  0  0  0  0  0  0  0  0  0
   61.2694   -6.8153   -5.7170 H   0  0  0  0  0  0  0  0  0  0  0  0
   62.3420   -8.1069   -5.5105 H   0  0  0  0  0  0  0  0  0  0  0  0
   61.8231   -9.1554   -8.0066 C   0  0  0  0  0  0  0  0  0  0  0  0
   62.8278   -9.3528   -9.0880 C   0  0  0  0  0  0  0  0  0  0  0  0
   62.4310   -9.5078  -10.4091 C   0  0  0  0  0  0  0  0  0  0  0  0
   63.3872   -9.6641  -11.4142 C   0  0  0  0  0  0  0  0  0  0  0  0
   64.7333   -9.6712  -11.1415 C   0  0  0  0  0  0  0  0  0  0  0  0
   65.1093   -9.5164   -9.8283 C   0  0  0  0  0  0  0  0  0  0  0  0
   64.1674   -9.3585   -8.8022 C   0  0  0  0  0  0  0  0  0  0  0  0
   58.7299   -5.9540  -10.0403 C   0  0  0  0  0  0  0  0  0  0  0  0
   57.9799   -5.1137  -10.9547 C   0  0  0  0  0  0  0  0  0  0  0  0
   58.7025   -4.5077  -11.9942 C   0  0  0  0  0  0  0  0  0  0  0  0
   58.1371   -3.6796  -12.9317 C   0  0  0  0  0  0  0  0  0  0  0  0
   56.7837   -3.4542  -12.8127 C   0  0  0  0  0  0  0  0  0  0  0  0
   56.0418   -4.0390  -11.7944 C   0  0  0  0  0  0  0  0  0  0  0  0
   56.6367   -4.8591  -10.8774 C   0  0  0  0  0  0  0  0  0  0  0  0
   54.5139   -4.9735   -7.7516 C   0  0  0  0  0  0  0  0  0  0  0  0
   53.0829   -3.9409   -9.5167 C   0  0  0  0  0  0  0  0  0  0  0  0
   53.7818   -3.8307   -8.2199 C   0  0  0  0  0  0  0  0  0  0  0  0
   54.8314   -2.6934   -8.4290 C   0  0  0  0  0  0  0  0  0  0  0  0
 62 63  1  0  0  0
 63 64  1  0  0  0
 63 61  1  0  0  0
 61  1  1  0  0  0
  1 34  1  0  0  0
 34 35  1  0  0  0
 35 36  2  0  0  0
 35 38  1  0  0  0
 38 54  1  0  0  0
 54 55  1  0  0  0
 55 56  2  0  0  0
 56 57  1  0  0  0
 57 58  2  0  0  0
 58 59  1  0  0  0
 59 60  2  0  0  0
 38 39  1  0  0  0
 39 40  1  0  0  0
 40 41  2  0  0  0
 40 43  1  0  0  0
 43 44  1  0  0  0
 43 47  1  0  0  0
 47 48  1  0  0  0
 48 49  2  0  0  0
 49 50  1  0  0  0
 50 51  2  0  0  0
 51 52  1  0  0  0
 52 53  2  0  0  0
  1  2  1  0  0  0
  2  3  2  0  0  0
  2  4  1  0  0  0
  4  6  1  0  0  0
  6 27  1  0  0  0
 27 28  1  0  0  0
 28 29  1  0  0  0
 29 30  1  0  0  0
 30 31  1  0  0  0
  6  7  1  0  0  0
  7  8  2  0  0  0
  7  9  1  0  0  0
  9 11  1  0  0  0
 11 16  1  0  0  0
 16 17  1  0  0  0
 17 18  2  0  0  0
 18 19  1  0  0  0
 19 20  1  0  0  0
 20 21  2  0  0  0
 21 22  1  0  0  0
 22 23  2  0  0  0
 23 24  1  0  0  0
 24 25  2  0  0  0
 11 12  1  0  0  0
 12 13  1  0  0  0
 12 14  2  0  0  0
 60 55  1  0  0  0
 53 48  1  0  0  0
 25 17  1  0  0  0
 25 20  1  0  0  0
 34 37  1  0  0  0
 39 42  1  0  0  0
 44 45  1  0  0  0
 44 46  1  0  0  0
  4  5  1  0  0  0
 31 32  1  0  0  0
 31 33  1  0  0  0
  9 10  1  0  0  0
 19 26  1  0  0  0
 13 15  1  0  0  0
M  END
> <minimizedAffinity>
-8.21083

> <CNNscore>
0.1531180441

> <CNNaffinity>
7.2549047470

> <CNN_VS>
1.1108567715

> <CNNaffinity_variance>
0.4056249261

$$$$
[H]OC(=O)[C@@]([H])(N([H])C(=O)[C@@]([H])(N([H])C(=O)[C@@]([H])(N([H])C(=O)[C@@]([H])(N([H])C(=O)[C@@]([H])(N([H])[H])C([H])([H])c1c([H])c([H])c([H])c([H])c1[H])C([H])([H])c1c([H])c([H])c([H])c([H])c1[H])C([H])([H])C([H])(C([H])([H])[H])C([H])([H])[H])C([H])([H])C([H])([H])C([H])([H])C([H])([H])N([H])[H])C([H])([H])c1c([H])n([H])c2c([H])c([H])c([H])c([H])c12


 64 67  0  0  0  0  0  0  0  0999 V2000
   55.4660   -5.2109   -6.9861 C   0  0  0  0  0  0  0  0  0  0  0  0
   55.4791   -5.9062   -5.7348 C   0  0  0  0  0  0  0  0  0  0  0  0
   55.3745   -7.2129   -5.8746 O   0  0  0  0  0  0  0  0  0  0  0  0
   55.5717   -5.5611   -4.4086 N   0  0  0  0  0  0  0  0  0  0  0  0
   55.7481   -4.5134   -4.2172 H   0  0  0  0  0  0  0  0  0  0  0  0
   55.5309   -6.3026   -3.1764 C   0  0  0  0  0  0  0  0  0  0  0  0
   54.1585   -6.5776   -2.7298 C   0  0  0  0  0  0  0  0  0  0  0  0
   53.8148   -7.8011   -2.6115 O   0  0  0  0  0  0  0  0  0  0  0  0
   53.2101   -5.5926   -2.4268 N   0  0  0  0  0  0  0  0  0  0  0  0
   53.4443   -4.5567   -2.5060 H   0  0  0  0  0  0  0  0  0  0  0  0
   51.8713   -5.8864   -1.9983 C   0  0  0  0  0  0  0  0  0  0  0  0
   51.9177   -6.7641   -0.7781 C   0  0  0  0  0  0  0  0  0  0  0  0
   52.8311   -6.5313    0.2214 O   0  0  0  0  0  0  0  0  0  0  0  0
   51.1157   -7.7304   -0.6553 O   0  0  0  0  0  0  0  0  0  0  0  0
   52.5089   -6.4813    1.1787 H   0  0  0  0  0  0  0  0  0  0  0  0
   50.9285   -6.4195   -3.0189 C   0  0  0  0  0  0  0  0  0  0  0  0
   50.9627   -5.7997   -4.3486 C   0  0  0  0  0  0  0  0  0  0  0  0
   51.7185   -6.2830   -5.4302 C   0  0  0  0  0  0  0  0  0  0  0  0
   51.4942   -5.4962   -6.4768 N   0  0  0  0  0  0  0  0  0  0  0  0
   50.6320   -4.5271   -6.1264 C   0  0  0  0  0  0  0  0  0  0  0  0
   50.1095   -3.4789   -6.8576 C   0  0  0  0  0  0  0  0  0  0  0  0
   49.2356   -2.5759   -6.2944 C   0  0  0  0  0  0  0  0  0  0  0  0
   48.8953   -2.7455   -4.9737 C   0  0  0  0  0  0  0  0  0  0  0  0
   49.4076   -3.7949   -4.2151 C   0  0  0  0  0  0  0  0  0  0  0  0
   50.2764   -4.6907   -4.7879 C   0  0  0  0  0  0  0  0  0  0  0  0
   51.8930   -5.5575   -7.4601 H   0  0  0  0  0  0  0  0  0  0  0  0
   56.5377   -6.0570   -2.1190 C   0  0  0  0  0  0  0  0  0  0  0  0
   57.9750   -6.1097   -2.4340 C   0  0  0  0  0  0  0  0  0  0  0  0
   58.5543   -7.5213   -2.3538 C   0  0  0  0  0  0  0  0  0  0  0  0
   59.1321   -7.9403   -3.6698 C   0  0  0  0  0  0  0  0  0  0  0  0
   58.4848   -7.2690   -4.7863 N   0  0  0  0  0  0  0  0  0  0  0  0
   57.5611   -7.6495   -5.0359 H   0  0  0  0  0  0  0  0  0  0  0  0
   59.1099   -7.3092   -5.6190 H   0  0  0  0  0  0  0  0  0  0  0  0
   56.5204   -5.7579   -7.8807 N   0  0  0  0  0  0  0  0  0  0  0  0
   57.7408   -5.2093   -8.2260 C   0  0  0  0  0  0  0  0  0  0  0  0
   58.0079   -4.0933   -7.6545 O   0  0  0  0  0  0  0  0  0  0  0  0
   56.2633   -6.7156   -8.2905 H   0  0  0  0  0  0  0  0  0  0  0  0
   58.7354   -5.7473   -9.1649 C   0  0  0  0  0  0  0  0  0  0  0  0
   58.7549   -5.0893  -10.4490 N   0  0  0  0  0  0  0  0  0  0  0  0
   57.6005   -4.6703  -11.1625 C   0  0  0  0  0  0  0  0  0  0  0  0
   56.4809   -4.8635  -10.6082 O   0  0  0  0  0  0  0  0  0  0  0  0
   59.6814   -4.9040  -10.8823 H   0  0  0  0  0  0  0  0  0  0  0  0
   57.6975   -4.0383  -12.4968 C   0  0  0  0  0  0  0  0  0  0  0  0
   59.0282   -4.1469  -13.0127 N   0  0  0  0  0  0  0  0  0  0  0  0
   59.7569   -4.0672  -12.2649 H   0  0  0  0  0  0  0  0  0  0  0  0
   59.1816   -3.3353  -13.6773 H   0  0  0  0  0  0  0  0  0  0  0  0
   56.7243   -4.5745  -13.5182 C   0  0  0  0  0  0  0  0  0  0  0  0
   56.8945   -3.8788  -14.8239 C   0  0  0  0  0  0  0  0  0  0  0  0
   55.8413   -3.7841  -15.7231 C   0  0  0  0  0  0  0  0  0  0  0  0
   56.0099   -3.1043  -16.9306 C   0  0  0  0  0  0  0  0  0  0  0  0
   57.2021   -2.5135  -17.2715 C   0  0  0  0  0  0  0  0  0  0  0  0
   58.2347   -2.6164  -16.3699 C   0  0  0  0  0  0  0  0  0  0  0  0
   58.0892   -3.2943  -15.1516 C   0  0  0  0  0  0  0  0  0  0  0  0
   60.0762   -6.1011   -8.7031 C   0  0  0  0  0  0  0  0  0  0  0  0
   60.9316   -6.9723   -9.4868 C   0  0  0  0  0  0  0  0  0  0  0  0
   61.9905   -6.3638  -10.1784 C   0  0  0  0  0  0  0  0  0  0  0  0
   62.8784   -7.0515  -10.9678 C   0  0  0  0  0  0  0  0  0  0  0  0
   62.6871   -8.4120  -11.0623 C   0  0  0  0  0  0  0  0  0  0  0  0
   61.6479   -9.0427  -10.3903 C   0  0  0  0  0  0  0  0  0  0  0  0
   60.7816   -8.3275   -9.6122 C   0  0  0  0  0  0  0  0  0  0  0  0
   54.3863   -4.9415   -7.8953 C   0  0  0  0  0  0  0  0  0  0  0  0
   53.1900   -3.7189   -9.7130 C   0  0  0  0  0  0  0  0  0  0  0  0
   53.7650   -3.7304   -8.3523 C   0  0  0  0  0  0  0  0  0  0  0  0
   54.8891   -2.6470   -8.3862 C   0  0  0  0  0  0  0  0  0  0  0  0
 62 63  1  0  0  0
 63 64  1  0  0  0
 63 61  1  0  0  0
 61  1  1  0  0  0
  1 34  1  0  0  0
 34 35  1  0  0  0
 35 36  2  0  0  0
 35 38  1  0  0  0
 38 54  1  0  0  0
 54 55  1  0  0  0
 55 56  2  0  0  0
 56 57  1  0  0  0
 57 58  2  0  0  0
 58 59  1  0  0  0
 59 60  2  0  0  0
 38 39  1  0  0  0
 39 40  1  0  0  0
 40 41  2  0  0  0
 40 43  1  0  0  0
 43 44  1  0  0  0
 43 47  1  0  0  0
 47 48  1  0  0  0
 48 49  2  0  0  0
 49 50  1  0  0  0
 50 51  2  0  0  0
 51 52  1  0  0  0
 52 53  2  0  0  0
  1  2  1  0  0  0
  2  3  2  0  0  0
  2  4  1  0  0  0
  4  6  1  0  0  0
  6 27  1  0  0  0
 27 28  1  0  0  0
 28 29  1  0  0  0
 29 30  1  0  0  0
 30 31  1  0  0  0
  6  7  1  0  0  0
  7  8  2  0  0  0
  7  9  1  0  0  0
  9 11  1  0  0  0
 11 16  1  0  0  0
 16 17  1  0  0  0
 17 18  2  0  0  0
 18 19  1  0  0  0
 19 20  1  0  0  0
 20 21  2  0  0  0
 21 22  1  0  0  0
 22 23  2  0  0  0
 23 24  1  0  0  0
 24 25  2  0  0  0
 11 12  1  0  0  0
 12 13  1  0  0  0
 12 14  2  0  0  0
 60 55  1  0  0  0
 53 48  1  0  0  0
 25 17  1  0  0  0
 25 20  1  0  0  0
 34 37  1  0  0  0
 39 42  1  0  0  0
 44 45  1  0  0  0
 44 46  1  0  0  0
  4  5  1  0  0  0
 31 32  1  0  0  0
 31 33  1  0  0  0
  9 10  1  0  0  0
 19 26  1  0  0  0
 13 15  1  0  0  0
M  END
> <minimizedAffinity>
-9.12373

> <CNNscore>
0.1521010250

> <CNNaffinity>
7.2555398941

> <CNN_VS>
1.1035751104

> <CNNaffinity_variance>
0.6563218236

$$$$
[H]OC(=O)[C@@]([H])(N([H])C(=O)[C@@]([H])(N([H])C(=O)[C@@]([H])(N([H])C(=O)[C@@]([H])(N([H])C(=O)[C@@]([H])(N([H])[H])C([H])([H])c1c([H])c([H])c([H])c([H])c1[H])C([H])([H])c1c([H])c([H])c([H])c([H])c1[H])C([H])([H])C([H])(C([H])([H])[H])C([H])([H])[H])C([H])([H])C([H])([H])C([H])([H])C([H])([H])N([H])[H])C([H])([H])c1c([H])n([H])c2c([H])c([H])c([H])c([H])c12


 64 67  0  0  0  0  0  0  0  0999 V2000
   58.3590   -7.7115   -1.8444 C   0  0  0  0  0  0  0  0  0  0  0  0
   57.0977   -7.5153   -2.4925 C   0  0  0  0  0  0  0  0  0  0  0  0
   56.3860   -8.6221   -2.5721 O   0  0  0  0  0  0  0  0  0  0  0  0
   56.4283   -6.4600   -3.0622 N   0  0  0  0  0  0  0  0  0  0  0  0
   56.9100   -5.4996   -2.9582 H   0  0  0  0  0  0  0  0  0  0  0  0
   55.1714   -6.3259   -3.7494 C   0  0  0  0  0  0  0  0  0  0  0  0
   55.3370   -6.1700   -5.2009 C   0  0  0  0  0  0  0  0  0  0  0  0
   56.0042   -7.0685   -5.8145 O   0  0  0  0  0  0  0  0  0  0  0  0
   54.8138   -5.1085   -5.9499 N   0  0  0  0  0  0  0  0  0  0  0  0
   54.2475   -4.3331   -5.4891 H   0  0  0  0  0  0  0  0  0  0  0  0
   54.9949   -4.9741   -7.3681 C   0  0  0  0  0  0  0  0  0  0  0  0
   55.7737   -3.7204   -7.6566 C   0  0  0  0  0  0  0  0  0  0  0  0
   56.3589   -3.0062   -6.6393 O   0  0  0  0  0  0  0  0  0  0  0  0
   55.9005   -3.3054   -8.8414 O   0  0  0  0  0  0  0  0  0  0  0  0
   57.3325   -2.7448   -6.7201 H   0  0  0  0  0  0  0  0  0  0  0  0
   53.7818   -5.0725   -8.2244 C   0  0  0  0  0  0  0  0  0  0  0  0
   52.7477   -4.0480   -8.0386 C   0  0  0  0  0  0  0  0  0  0  0  0
   52.6191   -2.8969   -8.8343 C   0  0  0  0  0  0  0  0  0  0  0  0
   51.5684   -2.2090   -8.4011 N   0  0  0  0  0  0  0  0  0  0  0  0
   51.0113   -2.8566   -7.3640 C   0  0  0  0  0  0  0  0  0  0  0  0
   49.9187   -2.5351   -6.5833 C   0  0  0  0  0  0  0  0  0  0  0  0
   49.5157   -3.3441   -5.5444 C   0  0  0  0  0  0  0  0  0  0  0  0
   50.2363   -4.4889   -5.3014 C   0  0  0  0  0  0  0  0  0  0  0  0
   51.3412   -4.8359   -6.0749 C   0  0  0  0  0  0  0  0  0  0  0  0
   51.7325   -4.0228   -7.1098 C   0  0  0  0  0  0  0  0  0  0  0  0
   51.1721   -1.2912   -8.7619 H   0  0  0  0  0  0  0  0  0  0  0  0
   54.0496   -5.5884   -3.1250 C   0  0  0  0  0  0  0  0  0  0  0  0
   53.3650   -6.1376   -1.9429 C   0  0  0  0  0  0  0  0  0  0  0  0
   52.0245   -6.7906   -2.2766 C   0  0  0  0  0  0  0  0  0  0  0  0
   51.9853   -8.2097   -1.8012 C   0  0  0  0  0  0  0  0  0  0  0  0
   53.3191   -8.7727   -1.6592 N   0  0  0  0  0  0  0  0  0  0  0  0
   53.7622   -9.0499   -2.5463 H   0  0  0  0  0  0  0  0  0  0  0  0
   53.2768   -9.5971   -1.0234 H   0  0  0  0  0  0  0  0  0  0  0  0
   59.1699   -8.7005   -2.6032 N   0  0  0  0  0  0  0  0  0  0  0  0
   59.7043   -8.5978   -3.8735 C   0  0  0  0  0  0  0  0  0  0  0  0
   59.5023   -7.4710   -4.4505 O   0  0  0  0  0  0  0  0  0  0  0  0
   59.3486   -9.6033   -2.0518 H   0  0  0  0  0  0  0  0  0  0  0  0
   60.4492   -9.6206   -4.6211 C   0  0  0  0  0  0  0  0  0  0  0  0
   60.7385   -9.2619   -5.9886 N   0  0  0  0  0  0  0  0  0  0  0  0
   61.8599   -8.4965   -6.4058 C   0  0  0  0  0  0  0  0  0  0  0  0
   62.6750   -8.1361   -5.5093 O   0  0  0  0  0  0  0  0  0  0  0  0
   60.0809   -9.5911   -6.7234 H   0  0  0  0  0  0  0  0  0  0  0  0
   62.0682   -8.1316   -7.8244 C   0  0  0  0  0  0  0  0  0  0  0  0
   61.1012   -8.7759   -8.6601 N   0  0  0  0  0  0  0  0  0  0  0  0
   60.8581   -9.7379   -8.3254 H   0  0  0  0  0  0  0  0  0  0  0  0
   61.5321   -8.8865   -9.6224 H   0  0  0  0  0  0  0  0  0  0  0  0
   62.0519   -6.6477   -8.1003 C   0  0  0  0  0  0  0  0  0  0  0  0
   60.7730   -6.2467   -8.7493 C   0  0  0  0  0  0  0  0  0  0  0  0
   59.6355   -6.0038   -7.9919 C   0  0  0  0  0  0  0  0  0  0  0  0
   58.4521   -5.6017   -8.6138 C   0  0  0  0  0  0  0  0  0  0  0  0
   58.3671   -5.4342   -9.9744 C   0  0  0  0  0  0  0  0  0  0  0  0
   59.5025   -5.6788  -10.7098 C   0  0  0  0  0  0  0  0  0  0  0  0
   60.7018   -6.0838  -10.1075 C   0  0  0  0  0  0  0  0  0  0  0  0
   61.5537  -10.3420   -3.9920 C   0  0  0  0  0  0  0  0  0  0  0  0
   61.7757  -11.7506   -4.2593 C   0  0  0  0  0  0  0  0  0  0  0  0
   63.0930  -12.2183   -4.1338 C   0  0  0  0  0  0  0  0  0  0  0  0
   63.4629  -13.5205   -4.3620 C   0  0  0  0  0  0  0  0  0  0  0  0
   62.4583  -14.3862   -4.7335 C   0  0  0  0  0  0  0  0  0  0  0  0
   61.1454  -13.9529   -4.8667 C   0  0  0  0  0  0  0  0  0  0  0  0
   60.8115  -12.6488   -4.6315 C   0  0  0  0  0  0  0  0  0  0  0  0
   59.3443   -6.7609   -1.4079 C   0  0  0  0  0  0  0  0  0  0  0  0
   60.3126   -7.9066    0.5870 C   0  0  0  0  0  0  0  0  0  0  0  0
   60.3287   -6.7752   -0.3628 C   0  0  0  0  0  0  0  0  0  0  0  0
   60.0532   -5.5141    0.5161 C   0  0  0  0  0  0  0  0  0  0  0  0
 62 63  1  0  0  0
 63 64  1  0  0  0
 63 61  1  0  0  0
 61  1  1  0  0  0
  1 34  1  0  0  0
 34 35  1  0  0  0
 35 36  2  0  0  0
 35 38  1  0  0  0
 38 54  1  0  0  0
 54 55  1  0  0  0
 55 56  2  0  0  0
 56 57  1  0  0  0
 57 58  2  0  0  0
 58 59  1  0  0  0
 59 60  2  0  0  0
 38 39  1  0  0  0
 39 40  1  0  0  0
 40 41  2  0  0  0
 40 43  1  0  0  0
 43 44  1  0  0  0
 43 47  1  0  0  0
 47 48  1  0  0  0
 48 49  2  0  0  0
 49 50  1  0  0  0
 50 51  2  0  0  0
 51 52  1  0  0  0
 52 53  2  0  0  0
  1  2  1  0  0  0
  2  3  2  0  0  0
  2  4  1  0  0  0
  4  6  1  0  0  0
  6 27  1  0  0  0
 27 28  1  0  0  0
 28 29  1  0  0  0
 29 30  1  0  0  0
 30 31  1  0  0  0
  6  7  1  0  0  0
  7  8  2  0  0  0
  7  9  1  0  0  0
  9 11  1  0  0  0
 11 16  1  0  0  0
 16 17  1  0  0  0
 17 18  2  0  0  0
 18 19  1  0  0  0
 19 20  1  0  0  0
 20 21  2  0  0  0
 21 22  1  0  0  0
 22 23  2  0  0  0
 23 24  1  0  0  0
 24 25  2  0  0  0
 11 12  1  0  0  0
 12 13  1  0  0  0
 12 14  2  0  0  0
 60 55  1  0  0  0
 53 48  1  0  0  0
 25 17  1  0  0  0
 25 20  1  0  0  0
 34 37  1  0  0  0
 39 42  1  0  0  0
 44 45  1  0  0  0
 44 46  1  0  0  0
  4  5  1  0  0  0
 31 32  1  0  0  0
 31 33  1  0  0  0
  9 10  1  0  0  0
 19 26  1  0  0  0
 13 15  1  0  0  0
M  END
> <minimizedAffinity>
-7.64050

> <CNNscore>
0.1353679448

> <CNNaffinity>
7.0718917847

> <CNN_VS>
0.9573074579

> <CNNaffinity_variance>
0.2466365546

$$$$
[H]OC(=O)[C@@]([H])(N([H])C(=O)[C@@]([H])(N([H])C(=O)[C@@]([H])(N([H])C(=O)[C@@]([H])(N([H])C(=O)[C@@]([H])(N([H])[H])C([H])([H])c1c([H])c([H])c([H])c([H])c1[H])C([H])([H])c1c([H])c([H])c([H])c([H])c1[H])C([H])([H])C([H])(C([H])([H])[H])C([H])([H])[H])C([H])([H])C([H])([H])C([H])([H])C([H])([H])N([H])[H])C([H])([H])c1c([H])n([H])c2c([H])c([H])c([H])c([H])c12


 64 67  0  0  0  0  0  0  0  0999 V2000
   57.2305   -4.9549   -7.9772 C   0  0  0  0  0  0  0  0  0  0  0  0
   56.5839   -5.7073   -6.9451 C   0  0  0  0  0  0  0  0  0  0  0  0
   55.3399   -6.0237   -7.2456 O   0  0  0  0  0  0  0  0  0  0  0  0
   56.9266   -6.1900   -5.7058 N   0  0  0  0  0  0  0  0  0  0  0  0
   57.9592   -6.0462   -5.4256 H   0  0  0  0  0  0  0  0  0  0  0  0
   56.2168   -6.9054   -4.6791 C   0  0  0  0  0  0  0  0  0  0  0  0
   55.0528   -6.1625   -4.1770 C   0  0  0  0  0  0  0  0  0  0  0  0
   55.1635   -4.8946   -4.0814 O   0  0  0  0  0  0  0  0  0  0  0  0
   53.8386   -6.7500   -3.8002 N   0  0  0  0  0  0  0  0  0  0  0  0
   53.6912   -7.8030   -3.8621 H   0  0  0  0  0  0  0  0  0  0  0  0
   52.7164   -6.0030   -3.3054 C   0  0  0  0  0  0  0  0  0  0  0  0
   52.6949   -6.0682   -1.8032 C   0  0  0  0  0  0  0  0  0  0  0  0
   51.5297   -6.3388   -1.1275 O   0  0  0  0  0  0  0  0  0  0  0  0
   53.7507   -5.8741   -1.1401 O   0  0  0  0  0  0  0  0  0  0  0  0
   51.5290   -7.0620   -0.4206 H   0  0  0  0  0  0  0  0  0  0  0  0
   51.3808   -6.3119   -3.8846 C   0  0  0  0  0  0  0  0  0  0  0  0
   50.5700   -5.1758   -4.3378 C   0  0  0  0  0  0  0  0  0  0  0  0
   49.4632   -4.6627   -3.6405 C   0  0  0  0  0  0  0  0  0  0  0  0
   48.9863   -3.6280   -4.3239 N   0  0  0  0  0  0  0  0  0  0  0  0
   49.7284   -3.4467   -5.4292 C   0  0  0  0  0  0  0  0  0  0  0  0
   49.6196   -2.5172   -6.4445 C   0  0  0  0  0  0  0  0  0  0  0  0
   50.4911   -2.5134   -7.5107 C   0  0  0  0  0  0  0  0  0  0  0  0
   51.4796   -3.4679   -7.5392 C   0  0  0  0  0  0  0  0  0  0  0  0
   51.6111   -4.4154   -6.5271 C   0  0  0  0  0  0  0  0  0  0  0  0
   50.7378   -4.4082   -5.4675 C   0  0  0  0  0  0  0  0  0  0  0  0
   48.1595   -2.9992   -4.0993 H   0  0  0  0  0  0  0  0  0  0  0  0
   56.9518   -7.7334   -3.6960 C   0  0  0  0  0  0  0  0  0  0  0  0
   58.1555   -7.2062   -3.0321 C   0  0  0  0  0  0  0  0  0  0  0  0
   57.8672   -6.6084   -1.6559 C   0  0  0  0  0  0  0  0  0  0  0  0
   57.8037   -5.1141   -1.7222 C   0  0  0  0  0  0  0  0  0  0  0  0
   56.4859   -4.6096   -1.3682 N   0  0  0  0  0  0  0  0  0  0  0  0
   55.7791   -4.7032   -2.1112 H   0  0  0  0  0  0  0  0  0  0  0  0
   56.5653   -3.6077   -1.0932 H   0  0  0  0  0  0  0  0  0  0  0  0
   58.6773   -5.2957   -8.0218 N   0  0  0  0  0  0  0  0  0  0  0  0
   59.3792   -5.9911   -8.9880 C   0  0  0  0  0  0  0  0  0  0  0  0
   58.6827   -6.3490  -10.0030 O   0  0  0  0  0  0  0  0  0  0  0  0
   59.2183   -4.9281   -7.1713 H   0  0  0  0  0  0  0  0  0  0  0  0
   60.7999   -6.3670   -8.9717 C   0  0  0  0  0  0  0  0  0  0  0  0
   61.1562   -7.2919   -7.9230 N   0  0  0  0  0  0  0  0  0  0  0  0
   62.3301   -7.2032   -7.1284 C   0  0  0  0  0  0  0  0  0  0  0  0
   63.0954   -6.2200   -7.3420 O   0  0  0  0  0  0  0  0  0  0  0  0
   60.5042   -8.0787   -7.7313 H   0  0  0  0  0  0  0  0  0  0  0  0
   62.6499   -8.2151   -6.0975 C   0  0  0  0  0  0  0  0  0  0  0  0
   62.9234   -7.5880   -4.8403 N   0  0  0  0  0  0  0  0  0  0  0  0
   63.4219   -6.6734   -4.9475 H   0  0  0  0  0  0  0  0  0  0  0  0
   63.5711   -8.2278   -4.2970 H   0  0  0  0  0  0  0  0  0  0  0  0
   61.5896   -9.2719   -5.9043 C   0  0  0  0  0  0  0  0  0  0  0  0
   61.9064  -10.4879   -6.7035 C   0  0  0  0  0  0  0  0  0  0  0  0
   63.2211  -10.8834   -6.9079 C   0  0  0  0  0  0  0  0  0  0  0  0
   63.4995  -12.0413   -7.6362 C   0  0  0  0  0  0  0  0  0  0  0  0
   62.5026  -12.8209   -8.1702 C   0  0  0  0  0  0  0  0  0  0  0  0
   61.2062  -12.4153   -7.9585 C   0  0  0  0  0  0  0  0  0  0  0  0
   60.9025  -11.2562   -7.2311 C   0  0  0  0  0  0  0  0  0  0  0  0
   61.5082   -6.6446  -10.2197 C   0  0  0  0  0  0  0  0  0  0  0  0
   62.2308   -7.8883  -10.4088 C   0  0  0  0  0  0  0  0  0  0  0  0
   63.6290   -7.8008  -10.4945 C   0  0  0  0  0  0  0  0  0  0  0  0
   64.4491   -8.8856  -10.6818 C   0  0  0  0  0  0  0  0  0  0  0  0
   63.8291  -10.1108  -10.7876 C   0  0  0  0  0  0  0  0  0  0  0  0
   62.4474  -10.2293  -10.7075 C   0  0  0  0  0  0  0  0  0  0  0  0
   61.6602   -9.1281  -10.5202 C   0  0  0  0  0  0  0  0  0  0  0  0
   56.8988   -4.7952   -9.3663 C   0  0  0  0  0  0  0  0  0  0  0  0
   54.6419   -3.8455   -9.8501 C   0  0  0  0  0  0  0  0  0  0  0  0
   56.1007   -3.8408  -10.0829 C   0  0  0  0  0  0  0  0  0  0  0  0
   56.2629   -4.1832  -11.5978 C   0  0  0  0  0  0  0  0  0  0  0  0
 62 63  1  0  0  0
 63 64  1  0  0  0
 63 61  1  0  0  0
 61  1  1  0  0  0
  1 34  1  0  0  0
 34 35  1  0  0  0
 35 36  2  0  0  0
 35 38  1  0  0  0
 38 54  1  0  0  0
 54 55  1  0  0  0
 55 56  2  0  0  0
 56 57  1  0  0  0
 57 58  2  0  0  0
 58 59  1  0  0  0
 59 60  2  0  0  0
 38 39  1  0  0  0
 39 40  1  0  0  0
 40 41  2  0  0  0
 40 43  1  0  0  0
 43 44  1  0  0  0
 43 47  1  0  0  0
 47 48  1  0  0  0
 48 49  2  0  0  0
 49 50  1  0  0  0
 50 51  2  0  0  0
 51 52  1  0  0  0
 52 53  2  0  0  0
  1  2  1  0  0  0
  2  3  2  0  0  0
  2  4  1  0  0  0
  4  6  1  0  0  0
  6 27  1  0  0  0
 27 28  1  0  0  0
 28 29  1  0  0  0
 29 30  1  0  0  0
 30 31  1  0  0  0
  6  7  1  0  0  0
  7  8  2  0  0  0
  7  9  1  0  0  0
  9 11  1  0  0  0
 11 16  1  0  0  0
 16 17  1  0  0  0
 17 18  2  0  0  0
 18 19  1  0  0  0
 19 20  1  0  0  0
 20 21  2  0  0  0
 21 22  1  0  0  0
 22 23  2  0  0  0
 23 24  1  0  0  0
 24 25  2  0  0  0
 11 12  1  0  0  0
 12 13  1  0  0  0
 12 14  2  0  0  0
 60 55  1  0  0  0
 53 48  1  0  0  0
 25 17  1  0  0  0
 25 20  1  0  0  0
 34 37  1  0  0  0
 39 42  1  0  0  0
 44 45  1  0  0  0
 44 46  1  0  0  0
  4  5  1  0  0  0
 31 32  1  0  0  0
 31 33  1  0  0  0
  9 10  1  0  0  0
 19 26  1  0  0  0
 13 15  1  0  0  0
M  END
> <minimizedAffinity>
-8.69577

> <CNNscore>
0.1040479913

> <CNNaffinity>
6.6450958252

> <CNN_VS>
0.6914088726

> <CNNaffinity_variance>
0.7003273368

$$$$
[H]OC(=O)[C@@]([H])(N([H])C(=O)[C@@]([H])(N([H])C(=O)[C@@]([H])(N([H])C(=O)[C@@]([H])(N([H])C(=O)[C@@]([H])(N([H])[H])C([H])([H])c1c([H])c([H])c([H])c([H])c1[H])C([H])([H])c1c([H])c([H])c([H])c([H])c1[H])C([H])([H])C([H])(C([H])([H])[H])C([H])([H])[H])C([H])([H])C([H])([H])C([H])([H])C([H])([H])N([H])[H])C([H])([H])c1c([H])n([H])c2c([H])c([H])c([H])c([H])c12


 64 67  0  0  0  0  0  0  0  0999 V2000
   57.8162   -4.8344   -8.7283 C   0  0  0  0  0  0  0  0  0  0  0  0
   56.8401   -4.8071   -7.6816 C   0  0  0  0  0  0  0  0  0  0  0  0
   56.7034   -3.6128   -7.1406 O   0  0  0  0  0  0  0  0  0  0  0  0
   55.9991   -5.7145   -7.0850 N   0  0  0  0  0  0  0  0  0  0  0  0
   55.9901   -6.6968   -7.5328 H   0  0  0  0  0  0  0  0  0  0  0  0
   55.0639   -5.6451   -5.9940 C   0  0  0  0  0  0  0  0  0  0  0  0
   55.6959   -5.9039   -4.6931 C   0  0  0  0  0  0  0  0  0  0  0  0
   56.4287   -6.9442   -4.5942 O   0  0  0  0  0  0  0  0  0  0  0  0
   55.5486   -5.0895   -3.5633 N   0  0  0  0  0  0  0  0  0  0  0  0
   54.9509   -4.2085   -3.5910 H   0  0  0  0  0  0  0  0  0  0  0  0
   56.1715   -5.3671   -2.2995 C   0  0  0  0  0  0  0  0  0  0  0  0
   55.1134   -5.5076   -1.2402 C   0  0  0  0  0  0  0  0  0  0  0  0
   54.2715   -4.4631   -0.9441 O   0  0  0  0  0  0  0  0  0  0  0  0
   54.9842   -6.5907   -0.6060 O   0  0  0  0  0  0  0  0  0  0  0  0
   53.2744   -4.6296   -0.9150 H   0  0  0  0  0  0  0  0  0  0  0  0
   57.2648   -4.4572   -1.8619 C   0  0  0  0  0  0  0  0  0  0  0  0
   58.3137   -5.0332   -1.0125 C   0  0  0  0  0  0  0  0  0  0  0  0
   58.7238   -4.4930    0.2182 C   0  0  0  0  0  0  0  0  0  0  0  0
   59.6695   -5.2790    0.7212 N   0  0  0  0  0  0  0  0  0  0  0  0
   59.8928   -6.3000   -0.1231 C   0  0  0  0  0  0  0  0  0  0  0  0
   60.7781   -7.3568   -0.0441 C   0  0  0  0  0  0  0  0  0  0  0  0
   60.8568   -8.3035   -1.0411 C   0  0  0  0  0  0  0  0  0  0  0  0
   60.0254   -8.1671   -2.1270 C   0  0  0  0  0  0  0  0  0  0  0  0
   59.1233   -7.1111   -2.2298 C   0  0  0  0  0  0  0  0  0  0  0  0
   59.0519   -6.1744   -1.2285 C   0  0  0  0  0  0  0  0  0  0  0  0
   60.2075   -5.1825    1.6327 H   0  0  0  0  0  0  0  0  0  0  0  0
   53.6738   -6.1254   -6.1653 C   0  0  0  0  0  0  0  0  0  0  0  0
   52.9007   -5.7535   -7.3618 C   0  0  0  0  0  0  0  0  0  0  0  0
   52.4898   -4.2818   -7.3757 C   0  0  0  0  0  0  0  0  0  0  0  0
   53.0142   -3.5894   -8.5951 C   0  0  0  0  0  0  0  0  0  0  0  0
   52.0859   -2.5855   -9.0918 N   0  0  0  0  0  0  0  0  0  0  0  0
   51.2849   -2.9663   -9.6150 H   0  0  0  0  0  0  0  0  0  0  0  0
   52.6019   -1.9110   -9.6956 H   0  0  0  0  0  0  0  0  0  0  0  0
   58.8117   -5.9072   -8.4648 N   0  0  0  0  0  0  0  0  0  0  0  0
   59.8985   -6.2934   -9.2261 C   0  0  0  0  0  0  0  0  0  0  0  0
   60.0893   -5.5927  -10.2824 O   0  0  0  0  0  0  0  0  0  0  0  0
   58.6306   -6.4263   -7.5435 H   0  0  0  0  0  0  0  0  0  0  0  0
   60.8284   -7.4021   -8.9686 C   0  0  0  0  0  0  0  0  0  0  0  0
   61.0494   -7.6774   -7.5695 N   0  0  0  0  0  0  0  0  0  0  0  0
   62.3168   -7.9438   -6.9863 C   0  0  0  0  0  0  0  0  0  0  0  0
   63.3217   -7.9021   -7.7520 O   0  0  0  0  0  0  0  0  0  0  0  0
   60.2216   -7.6764   -6.9407 H   0  0  0  0  0  0  0  0  0  0  0  0
   62.4603   -8.2599   -5.5480 C   0  0  0  0  0  0  0  0  0  0  0  0
   62.1018   -7.1315   -4.7436 N   0  0  0  0  0  0  0  0  0  0  0  0
   62.3799   -6.2216   -5.1809 H   0  0  0  0  0  0  0  0  0  0  0  0
   62.6339   -7.2073   -3.8298 H   0  0  0  0  0  0  0  0  0  0  0  0
   61.6769   -9.4654   -5.0885 C   0  0  0  0  0  0  0  0  0  0  0  0
   61.8726  -10.6081   -6.0233 C   0  0  0  0  0  0  0  0  0  0  0  0
   60.8093  -11.1215   -6.7530 C   0  0  0  0  0  0  0  0  0  0  0  0
   61.0155  -12.1748   -7.6456 C   0  0  0  0  0  0  0  0  0  0  0  0
   62.2553  -12.7355   -7.8336 C   0  0  0  0  0  0  0  0  0  0  0  0
   63.2975  -12.2153   -7.1035 C   0  0  0  0  0  0  0  0  0  0  0  0
   63.1143  -11.1584   -6.2011 C   0  0  0  0  0  0  0  0  0  0  0  0
   60.7680   -8.6224   -9.7707 C   0  0  0  0  0  0  0  0  0  0  0  0
   61.9216   -9.0826  -10.5204 C   0  0  0  0  0  0  0  0  0  0  0  0
   62.6395   -8.1117  -11.2359 C   0  0  0  0  0  0  0  0  0  0  0  0
   63.7460   -8.3920  -11.9985 C   0  0  0  0  0  0  0  0  0  0  0  0
   64.1431   -9.7101  -12.0398 C   0  0  0  0  0  0  0  0  0  0  0  0
   63.4527  -10.6936  -11.3431 C   0  0  0  0  0  0  0  0  0  0  0  0
   62.3545  -10.3796  -10.5928 C   0  0  0  0  0  0  0  0  0  0  0  0
   57.6564   -4.8929  -10.1552 C   0  0  0  0  0  0  0  0  0  0  0  0
   55.5170   -4.1875  -11.2299 C   0  0  0  0  0  0  0  0  0  0  0  0
   56.9827   -4.0521  -11.1042 C   0  0  0  0  0  0  0  0  0  0  0  0
   57.5403   -4.4429  -12.5095 C   0  0  0  0  0  0  0  0  0  0  0  0
 62 63  1  0  0  0
 63 64  1  0  0  0
 63 61  1  0  0  0
 61  1  1  0  0  0
  1 34  1  0  0  0
 34 35  1  0  0  0
 35 36  2  0  0  0
 35 38  1  0  0  0
 38 54  1  0  0  0
 54 55  1  0  0  0
 55 56  2  0  0  0
 56 57  1  0  0  0
 57 58  2  0  0  0
 58 59  1  0  0  0
 59 60  2  0  0  0
 38 39  1  0  0  0
 39 40  1  0  0  0
 40 41  2  0  0  0
 40 43  1  0  0  0
 43 44  1  0  0  0
 43 47  1  0  0  0
 47 48  1  0  0  0
 48 49  2  0  0  0
 49 50  1  0  0  0
 50 51  2  0  0  0
 51 52  1  0  0  0
 52 53  2  0  0  0
  1  2  1  0  0  0
  2  3  2  0  0  0
  2  4  1  0  0  0
  4  6  1  0  0  0
  6 27  1  0  0  0
 27 28  1  0  0  0
 28 29  1  0  0  0
 29 30  1  0  0  0
 30 31  1  0  0  0
  6  7  1  0  0  0
  7  8  2  0  0  0
  7  9  1  0  0  0
  9 11  1  0  0  0
 11 16  1  0  0  0
 16 17  1  0  0  0
 17 18  2  0  0  0
 18 19  1  0  0  0
 19 20  1  0  0  0
 20 21  2  0  0  0
 21 22  1  0  0  0
 22 23  2  0  0  0
 23 24  1  0  0  0
 24 25  2  0  0  0
 11 12  1  0  0  0
 12 13  1  0  0  0
 12 14  2  0  0  0
 60 55  1  0  0  0
 53 48  1  0  0  0
 25 17  1  0  0  0
 25 20  1  0  0  0
 34 37  1  0  0  0
 39 42  1  0  0  0
 44 45  1  0  0  0
 44 46  1  0  0  0
  4  5  1  0  0  0
 31 32  1  0  0  0
 31 33  1  0  0  0
  9 10  1  0  0  0
 19 26  1  0  0  0
 13 15  1  0  0  0
M  END
> <minimizedAffinity>
-7.58798

> <CNNscore>
0.0993978009

> <CNNaffinity>
6.3727445602

> <CNN_VS>
0.6334367990

> <CNNaffinity_variance>
1.4158750772

$$$$
[H]OC(=O)[C@@]([H])(N([H])C(=O)[C@@]([H])(N([H])C(=O)[C@@]([H])(N([H])C(=O)[C@@]([H])(N([H])C(=O)[C@@]([H])(N([H])[H])C([H])([H])c1c([H])c([H])c([H])c([H])c1[H])C([H])([H])c1c([H])c([H])c([H])c([H])c1[H])C([H])([H])C([H])(C([H])([H])[H])C([H])([H])[H])C([H])([H])C([H])([H])C([H])([H])C([H])([H])N([H])[H])C([H])([H])c1c([H])n([H])c2c([H])c([H])c([H])c([H])c12


 64 67  0  0  0  0  0  0  0  0999 V2000
   56.3727   -3.7554   -6.7873 C   0  0  0  0  0  0  0  0  0  0  0  0
   56.2661   -4.6213   -5.6523 C   0  0  0  0  0  0  0  0  0  0  0  0
   56.0083   -3.9707   -4.5351 O   0  0  0  0  0  0  0  0  0  0  0  0
   56.3661   -5.9715   -5.4213 N   0  0  0  0  0  0  0  0  0  0  0  0
   56.4897   -6.5812   -6.3036 H   0  0  0  0  0  0  0  0  0  0  0  0
   56.2978   -6.7927   -4.2420 C   0  0  0  0  0  0  0  0  0  0  0  0
   54.9200   -6.9868   -3.7700 C   0  0  0  0  0  0  0  0  0  0  0  0
   54.4585   -8.1767   -3.7818 O   0  0  0  0  0  0  0  0  0  0  0  0
   54.0864   -5.9594   -3.3104 N   0  0  0  0  0  0  0  0  0  0  0  0
   54.4213   -4.9490   -3.2770 H   0  0  0  0  0  0  0  0  0  0  0  0
   52.7396   -6.1730   -2.8601 C   0  0  0  0  0  0  0  0  0  0  0  0
   52.7269   -7.2545   -1.8153 C   0  0  0  0  0  0  0  0  0  0  0  0
   53.6791   -7.2874   -0.8255 O   0  0  0  0  0  0  0  0  0  0  0  0
   51.8385   -8.1502   -1.8337 O   0  0  0  0  0  0  0  0  0  0  0  0
   53.3833   -7.3795    0.1372 H   0  0  0  0  0  0  0  0  0  0  0  0
   51.7003   -6.4057   -3.8995 C   0  0  0  0  0  0  0  0  0  0  0  0
   50.6573   -5.3833   -4.0422 C   0  0  0  0  0  0  0  0  0  0  0  0
   49.6481   -5.1417   -3.0947 C   0  0  0  0  0  0  0  0  0  0  0  0
   48.8978   -4.1377   -3.5353 N   0  0  0  0  0  0  0  0  0  0  0  0
   49.3703   -3.7184   -4.7211 C   0  0  0  0  0  0  0  0  0  0  0  0
   48.9260   -2.7203   -5.5656 C   0  0  0  0  0  0  0  0  0  0  0  0
   49.5577   -2.4568   -6.7605 C   0  0  0  0  0  0  0  0  0  0  0  0
   50.6503   -3.2208   -7.0946 C   0  0  0  0  0  0  0  0  0  0  0  0
   51.1185   -4.2324   -6.2598 C   0  0  0  0  0  0  0  0  0  0  0  0
   50.4821   -4.4846   -5.0696 C   0  0  0  0  0  0  0  0  0  0  0  0
   48.0488   -3.6858   -3.0831 H   0  0  0  0  0  0  0  0  0  0  0  0
   57.3501   -6.7050   -3.2042 C   0  0  0  0  0  0  0  0  0  0  0  0
   57.0262   -6.9696   -1.7925 C   0  0  0  0  0  0  0  0  0  0  0  0
   57.6241   -5.9377   -0.8373 C   0  0  0  0  0  0  0  0  0  0  0  0
   56.5575   -5.2902   -0.0100 C   0  0  0  0  0  0  0  0  0  0  0  0
   55.4541   -4.8079   -0.8262 N   0  0  0  0  0  0  0  0  0  0  0  0
   55.6448   -3.9274   -1.3247 H   0  0  0  0  0  0  0  0  0  0  0  0
   54.6112   -4.6876   -0.2256 H   0  0  0  0  0  0  0  0  0  0  0  0
   57.6119   -4.0674   -7.5478 N   0  0  0  0  0  0  0  0  0  0  0  0
   57.9416   -5.2151   -8.2434 C   0  0  0  0  0  0  0  0  0  0  0  0
   57.0250   -6.1110   -8.2646 O   0  0  0  0  0  0  0  0  0  0  0  0
   58.3213   -3.2625   -7.5364 H   0  0  0  0  0  0  0  0  0  0  0  0
   59.2037   -5.5173   -8.9332 C   0  0  0  0  0  0  0  0  0  0  0  0
   59.9954   -6.5428   -8.2979 N   0  0  0  0  0  0  0  0  0  0  0  0
   61.4137   -6.6108   -8.3343 C   0  0  0  0  0  0  0  0  0  0  0  0
   62.0179   -5.6822   -8.9430 O   0  0  0  0  0  0  0  0  0  0  0  0
   59.4920   -7.2841   -7.7708 H   0  0  0  0  0  0  0  0  0  0  0  0
   62.1560   -7.7185   -7.6931 C   0  0  0  0  0  0  0  0  0  0  0  0
   63.2413   -8.1471   -8.5221 N   0  0  0  0  0  0  0  0  0  0  0  0
   63.0101   -8.1012   -9.5424 H   0  0  0  0  0  0  0  0  0  0  0  0
   63.4338   -9.1651   -8.2973 H   0  0  0  0  0  0  0  0  0  0  0  0
   62.6797   -7.4073   -6.3122 C   0  0  0  0  0  0  0  0  0  0  0  0
   61.8666   -8.0976   -5.2728 C   0  0  0  0  0  0  0  0  0  0  0  0
   61.3812   -9.3807   -5.4842 C   0  0  0  0  0  0  0  0  0  0  0  0
   60.6442  -10.0240   -4.4884 C   0  0  0  0  0  0  0  0  0  0  0  0
   60.3743   -9.4245   -3.2824 C   0  0  0  0  0  0  0  0  0  0  0  0
   60.8624   -8.1540   -3.0891 C   0  0  0  0  0  0  0  0  0  0  0  0
   61.6043   -7.4880   -4.0745 C   0  0  0  0  0  0  0  0  0  0  0  0
   59.2495   -5.6056  -10.3914 C   0  0  0  0  0  0  0  0  0  0  0  0
   58.2830   -4.9027  -11.2140 C   0  0  0  0  0  0  0  0  0  0  0  0
   58.7809   -4.2343  -12.3434 C   0  0  0  0  0  0  0  0  0  0  0  0
   57.9946   -3.5190  -13.2120 C   0  0  0  0  0  0  0  0  0  0  0  0
   56.6481   -3.4771  -12.9263 C   0  0  0  0  0  0  0  0  0  0  0  0
   56.1258   -4.1278  -11.8158 C   0  0  0  0  0  0  0  0  0  0  0  0
   56.9373   -4.8317  -10.9712 C   0  0  0  0  0  0  0  0  0  0  0  0
   55.4279   -3.4569   -7.8281 C   0  0  0  0  0  0  0  0  0  0  0  0
   53.7364   -5.2438   -8.2471 C   0  0  0  0  0  0  0  0  0  0  0  0
   54.0541   -3.8159   -8.0412 C   0  0  0  0  0  0  0  0  0  0  0  0
   53.6190   -3.1161   -9.3677 C   0  0  0  0  0  0  0  0  0  0  0  0
 62 63  1  0  0  0
 63 64  1  0  0  0
 63 61  1  0  0  0
 61  1  1  0  0  0
  1 34  1  0  0  0
 34 35  1  0  0  0
 35 36  2  0  0  0
 35 38  1  0  0  0
 38 54  1  0  0  0
 54 55  1  0  0  0
 55 56  2  0  0  0
 56 57  1  0  0  0
 57 58  2  0  0  0
 58 59  1  0  0  0
 59 60  2  0  0  0
 38 39  1  0  0  0
 39 40  1  0  0  0
 40 41  2  0  0  0
 40 43  1  0  0  0
 43 44  1  0  0  0
 43 47  1  0  0  0
 47 48  1  0  0  0
 48 49  2  0  0  0
 49 50  1  0  0  0
 50 51  2  0  0  0
 51 52  1  0  0  0
 52 53  2  0  0  0
  1  2  1  0  0  0
  2  3  2  0  0  0
  2  4  1  0  0  0
  4  6  1  0  0  0
  6 27  1  0  0  0
 27 28  1  0  0  0
 28 29  1  0  0  0
 29 30  1  0  0  0
 30 31  1  0  0  0
  6  7  1  0  0  0
  7  8  2  0  0  0
  7  9  1  0  0  0
  9 11  1  0  0  0
 11 16  1  0  0  0
 16 17  1  0  0  0
 17 18  2  0  0  0
 18 19  1  0  0  0
 19 20  1  0  0  0
 20 21  2  0  0  0
 21 22  1  0  0  0
 22 23  2  0  0  0
 23 24  1  0  0  0
 24 25  2  0  0  0
 11 12  1  0  0  0
 12 13  1  0  0  0
 12 14  2  0  0  0
 60 55  1  0  0  0
 53 48  1  0  0  0
 25 17  1  0  0  0
 25 20  1  0  0  0
 34 37  1  0  0  0
 39 42  1  0  0  0
 44 45  1  0  0  0
 44 46  1  0  0  0
  4  5  1  0  0  0
 31 32  1  0  0  0
 31 33  1  0  0  0
  9 10  1  0  0  0
 19 26  1  0  0  0
 13 15  1  0  0  0
M  END
> <minimizedAffinity>
-7.74913

> <CNNscore>
0.0958510786

> <CNNaffinity>
7.0299668312

> <CNN_VS>
0.6738299131

> <CNNaffinity_variance>
0.8427724838

$$$$
[H]OC(=O)[C@@]([H])(N([H])C(=O)[C@@]([H])(N([H])C(=O)[C@@]([H])(N([H])C(=O)[C@@]([H])(N([H])C(=O)[C@@]([H])(N([H])[H])C([H])([H])c1c([H])c([H])c([H])c([H])c1[H])C([H])([H])c1c([H])c([H])c([H])c([H])c1[H])C([H])([H])C([H])(C([H])([H])[H])C([H])([H])[H])C([H])([H])C([H])([H])C([H])([H])C([H])([H])N([H])[H])C([H])([H])c1c([H])n([H])c2c([H])c([H])c([H])c([H])c12


 64 67  0  0  0  0  0  0  0  0999 V2000
   56.1599   -5.7192   -6.6931 C   0  0  0  0  0  0  0  0  0  0  0  0
   56.8501   -6.0431   -5.4815 C   0  0  0  0  0  0  0  0  0  0  0  0
   56.9125   -5.0290   -4.6415 O   0  0  0  0  0  0  0  0  0  0  0  0
   57.4744   -7.1501   -4.9606 N   0  0  0  0  0  0  0  0  0  0  0  0
   57.3893   -8.0480   -5.5539 H   0  0  0  0  0  0  0  0  0  0  0  0
   58.2014   -7.4105   -3.7468 C   0  0  0  0  0  0  0  0  0  0  0  0
   59.4450   -8.1561   -3.9840 C   0  0  0  0  0  0  0  0  0  0  0  0
   59.7196   -9.1088   -3.1803 O   0  0  0  0  0  0  0  0  0  0  0  0
   60.3417   -7.8925   -5.0271 N   0  0  0  0  0  0  0  0  0  0  0  0
   60.1605   -7.1111   -5.7276 H   0  0  0  0  0  0  0  0  0  0  0  0
   61.5554   -8.6314   -5.2347 C   0  0  0  0  0  0  0  0  0  0  0  0
   62.7171   -7.8501   -4.6858 C   0  0  0  0  0  0  0  0  0  0  0  0
   62.5432   -6.5742   -4.2071 O   0  0  0  0  0  0  0  0  0  0  0  0
   63.8720   -8.3575   -4.6576 O   0  0  0  0  0  0  0  0  0  0  0  0
   62.9080   -6.3387   -3.2938 H   0  0  0  0  0  0  0  0  0  0  0  0
   61.8296   -9.1220   -6.6127 C   0  0  0  0  0  0  0  0  0  0  0  0
   62.2085   -8.1201   -7.6157 C   0  0  0  0  0  0  0  0  0  0  0  0
   61.4170   -7.0149   -7.9717 C   0  0  0  0  0  0  0  0  0  0  0  0
   62.0753   -6.3112   -8.8862 N   0  0  0  0  0  0  0  0  0  0  0  0
   63.2527   -6.9063   -9.1408 C   0  0  0  0  0  0  0  0  0  0  0  0
   64.2663   -6.5613  -10.0127 C   0  0  0  0  0  0  0  0  0  0  0  0
   65.4039   -7.3282  -10.1306 C   0  0  0  0  0  0  0  0  0  0  0  0
   65.5046   -8.4566   -9.3525 C   0  0  0  0  0  0  0  0  0  0  0  0
   64.4968   -8.8255   -8.4649 C   0  0  0  0  0  0  0  0  0  0  0  0
   63.3679   -8.0519   -8.3539 C   0  0  0  0  0  0  0  0  0  0  0  0
   61.7852   -5.4167   -9.3814 H   0  0  0  0  0  0  0  0  0  0  0  0
   57.4796   -7.7046   -2.4879 C   0  0  0  0  0  0  0  0  0  0  0  0
   56.0357   -7.9916   -2.5083 C   0  0  0  0  0  0  0  0  0  0  0  0
   55.2896   -7.3949   -1.3157 C   0  0  0  0  0  0  0  0  0  0  0  0
   55.9469   -7.7760   -0.0258 C   0  0  0  0  0  0  0  0  0  0  0  0
   55.4196   -9.0234    0.5055 N   0  0  0  0  0  0  0  0  0  0  0  0
   54.5012   -8.9382    0.9632 H   0  0  0  0  0  0  0  0  0  0  0  0
   56.1045   -9.4247    1.1805 H   0  0  0  0  0  0  0  0  0  0  0  0
   54.7098   -5.5386   -6.4173 N   0  0  0  0  0  0  0  0  0  0  0  0
   53.7902   -6.4594   -5.9524 C   0  0  0  0  0  0  0  0  0  0  0  0
   54.2768   -7.6146   -5.6842 O   0  0  0  0  0  0  0  0  0  0  0  0
   54.3699   -4.5399   -6.6127 H   0  0  0  0  0  0  0  0  0  0  0  0
   52.3474   -6.2658   -5.7500 C   0  0  0  0  0  0  0  0  0  0  0  0
   51.9346   -6.2884   -4.3675 N   0  0  0  0  0  0  0  0  0  0  0  0
   52.6991   -5.7774   -3.2850 C   0  0  0  0  0  0  0  0  0  0  0  0
   53.8058   -5.2362   -3.5683 O   0  0  0  0  0  0  0  0  0  0  0  0
   51.0079   -6.7049   -4.1472 H   0  0  0  0  0  0  0  0  0  0  0  0
   52.2278   -5.8742   -1.8859 C   0  0  0  0  0  0  0  0  0  0  0  0
   52.2943   -4.5987   -1.2399 N   0  0  0  0  0  0  0  0  0  0  0  0
   53.1202   -4.0342   -1.5492 H   0  0  0  0  0  0  0  0  0  0  0  0
   52.4133   -4.7714   -0.2007 H   0  0  0  0  0  0  0  0  0  0  0  0
   50.8363   -6.4375   -1.7292 C   0  0  0  0  0  0  0  0  0  0  0  0
   50.8820   -7.7864   -1.0998 C   0  0  0  0  0  0  0  0  0  0  0  0
   50.0881   -8.0872   -0.0016 C   0  0  0  0  0  0  0  0  0  0  0  0
   50.1227   -9.3651    0.5592 C   0  0  0  0  0  0  0  0  0  0  0  0
   50.9287  -10.3573    0.0568 C   0  0  0  0  0  0  0  0  0  0  0  0
   51.7083  -10.0431   -1.0310 C   0  0  0  0  0  0  0  0  0  0  0  0
   51.6908   -8.7669   -1.6106 C   0  0  0  0  0  0  0  0  0  0  0  0
   51.6159   -5.2699   -6.5305 C   0  0  0  0  0  0  0  0  0  0  0  0
   50.5951   -4.4413   -5.9172 C   0  0  0  0  0  0  0  0  0  0  0  0
   50.2552   -3.2561   -6.5877 C   0  0  0  0  0  0  0  0  0  0  0  0
   49.3167   -2.3652   -6.1297 C   0  0  0  0  0  0  0  0  0  0  0  0
   48.6958   -2.6860   -4.9430 C   0  0  0  0  0  0  0  0  0  0  0  0
   49.0112   -3.8513   -4.2560 C   0  0  0  0  0  0  0  0  0  0  0  0
   49.9510   -4.7169   -4.7407 C   0  0  0  0  0  0  0  0  0  0  0  0
   56.4242   -4.7070   -7.6784 C   0  0  0  0  0  0  0  0  0  0  0  0
   56.6567   -4.1059  -10.0897 C   0  0  0  0  0  0  0  0  0  0  0  0
   55.7918   -4.3527   -8.9177 C   0  0  0  0  0  0  0  0  0  0  0  0
   55.0652   -2.9936   -8.6662 C   0  0  0  0  0  0  0  0  0  0  0  0
 62 63  1  0  0  0
 63 64  1  0  0  0
 63 61  1  0  0  0
 61  1  1  0  0  0
  1 34  1  0  0  0
 34 35  1  0  0  0
 35 36  2  0  0  0
 35 38  1  0  0  0
 38 54  1  0  0  0
 54 55  1  0  0  0
 55 56  2  0  0  0
 56 57  1  0  0  0
 57 58  2  0  0  0
 58 59  1  0  0  0
 59 60  2  0  0  0
 38 39  1  0  0  0
 39 40  1  0  0  0
 40 41  2  0  0  0
 40 43  1  0  0  0
 43 44  1  0  0  0
 43 47  1  0  0  0
 47 48  1  0  0  0
 48 49  2  0  0  0
 49 50  1  0  0  0
 50 51  2  0  0  0
 51 52  1  0  0  0
 52 53  2  0  0  0
  1  2  1  0  0  0
  2  3  2  0  0  0
  2  4  1  0  0  0
  4  6  1  0  0  0
  6 27  1  0  0  0
 27 28  1  0  0  0
 28 29  1  0  0  0
 29 30  1  0  0  0
 30 31  1  0  0  0
  6  7  1  0  0  0
  7  8  2  0  0  0
  7  9  1  0  0  0
  9 11  1  0  0  0
 11 16  1  0  0  0
 16 17  1  0  0  0
 17 18  2  0  0  0
 18 19  1  0  0  0
 19 20  1  0  0  0
 20 21  2  0  0  0
 21 22  1  0  0  0
 22 23  2  0  0  0
 23 24  1  0  0  0
 24 25  2  0  0  0
 11 12  1  0  0  0
 12 13  1  0  0  0
 12 14  2  0  0  0
 60 55  1  0  0  0
 53 48  1  0  0  0
 25 17  1  0  0  0
 25 20  1  0  0  0
 34 37  1  0  0  0
 39 42  1  0  0  0
 44 45  1  0  0  0
 44 46  1  0  0  0
  4  5  1  0  0  0
 31 32  1  0  0  0
 31 33  1  0  0  0
  9 10  1  0  0  0
 19 26  1  0  0  0
 13 15  1  0  0  0
M  END
> <minimizedAffinity>
-8.20208

> <CNNscore>
0.0902739242

> <CNNaffinity>
6.6381273270

> <CNN_VS>
0.5992497802

> <CNNaffinity_variance>
0.9062031507

$$$$
[H]c1nc2c([H])c(OC([H])([H])C([H])([H])C([H])([H])N3C([H])([H])C([H])([H])N(C([H])([H])[H])C([H])([H])C3([H])[H])c(OC([H])([H])[H])c([H])c2c(N([H])c2c([H])c(OC([H])([H])[H])c(Cl)c([H])c2Cl)c1C#N


 37 40  0  0  0  0  0  0  0  0999 V2000
   54.1289   -5.1828   -7.5087 C   0  0  0  0  0  0  0  0  0  0  0  0
   54.6026   -4.1996   -8.3549 C   0  0  0  0  0  0  0  0  0  0  0  0
   55.9532   -3.8696   -8.2308 C   0  0  0  0  0  0  0  0  0  0  0  0
   56.7470   -4.4799   -7.3329 N   0  0  0  0  0  0  0  0  0  0  0  0
   56.2633   -5.4354   -6.5185 C   0  0  0  0  0  0  0  0  0  0  0  0
   57.0592   -6.0888   -5.5757 C   0  0  0  0  0  0  0  0  0  0  0  0
   56.5543   -7.0678   -4.7442 C   0  0  0  0  0  0  0  0  0  0  0  0
   55.2234   -7.4282   -4.8304 C   0  0  0  0  0  0  0  0  0  0  0  0
   54.4083   -6.7932   -5.7613 C   0  0  0  0  0  0  0  0  0  0  0  0
   54.9394   -5.8178   -6.5798 C   0  0  0  0  0  0  0  0  0  0  0  0
   52.7701   -5.5336   -7.6144 N   0  0  0  0  0  0  0  0  0  0  0  0
   52.4131   -6.0185   -8.4655 H   0  0  0  0  0  0  0  0  0  0  0  0
   50.8294   -5.8028   -4.4157 C   0  0  0  0  0  0  0  0  0  0  0  0
   51.7138   -6.0264   -5.4407 C   0  0  0  0  0  0  0  0  0  0  0  0
   51.8193   -5.2462   -6.5714 C   0  0  0  0  0  0  0  0  0  0  0  0
   50.9649   -4.1680   -6.6584 C   0  0  0  0  0  0  0  0  0  0  0  0
   50.9955   -3.1022   -8.0347 Cl  0  0  0  0  0  0  0  0  0  0  0  0
   50.0476   -3.8921   -5.6501 C   0  0  0  0  0  0  0  0  0  0  0  0
   49.9817   -4.7021   -4.5408 C   0  0  0  0  0  0  0  0  0  0  0  0
   48.8546   -4.4199   -3.2320 Cl  0  0  0  0  0  0  0  0  0  0  0  0
   51.4546   -6.1780   -2.1303 C   0  0  0  0  0  0  0  0  0  0  0  0
   50.7526   -6.6186   -3.2832 O   0  0  0  0  0  0  0  0  0  0  0  0
   54.7646   -8.4063   -3.9845 O   0  0  0  0  0  0  0  0  0  0  0  0
   54.2259   -8.1545   -2.7029 C   0  0  0  0  0  0  0  0  0  0  0  0
   53.7510   -3.5437   -9.3192 C   0  0  0  0  0  0  0  0  0  0  0  0
   53.0653   -3.0016  -10.0823 N   0  0  0  0  0  0  0  0  0  0  0  0
   57.3756   -7.7054   -3.8087 O   0  0  0  0  0  0  0  0  0  0  0  0
   58.3851   -7.0255   -3.1051 C   0  0  0  0  0  0  0  0  0  0  0  0
   59.5142   -8.0080   -2.8744 C   0  0  0  0  0  0  0  0  0  0  0  0
   60.5856   -7.7227   -3.9004 C   0  0  0  0  0  0  0  0  0  0  0  0
   61.2852   -8.8890   -4.3268 N   0  0  0  0  0  0  0  0  0  0  0  0
   62.0771   -8.7059   -5.5196 C   0  0  0  0  0  0  0  0  0  0  0  0
   61.6131   -9.5936   -6.6525 C   0  0  0  0  0  0  0  0  0  0  0  0
   61.6606  -10.9949   -6.2938 N   0  0  0  0  0  0  0  0  0  0  0  0
   60.5935  -11.6666   -7.0266 C   0  0  0  0  0  0  0  0  0  0  0  0
   61.3940  -11.2088   -4.8864 C   0  0  0  0  0  0  0  0  0  0  0  0
   60.5188  -10.0920   -4.3280 C   0  0  0  0  0  0  0  0  0  0  0  0
 21 22  1  0  0  0
 22 13  1  0  0  0
 13 14  2  0  0  0
 14 15  1  0  0  0
 15 11  1  0  0  0
 11  1  1  0  0  0
  1  2  2  0  0  0
  2  3  1  0  0  0
  3  4  2  0  0  0
  4  5  1  0  0  0
  5  6  2  0  0  0
  6  7  1  0  0  0
  7 27  1  0  0  0
 27 28  1  0  0  0
 28 29  1  0  0  0
 29 30  1  0  0  0
 30 31  1  0  0  0
 31 32  1  0  0  0
 32 33  1  0  0  0
 33 34  1  0  0  0
 34 35  1  0  0  0
 34 36  1  0  0  0
 36 37  1  0  0  0
  7  8  2  0  0  0
  8 23  1  0  0  0
 23 24  1  0  0  0
  8  9  1  0  0  0
  9 10  2  0  0  0
  2 25  1  0  0  0
 25 26  3  0  0  0
 15 16  2  0  0  0
 16 17  1  0  0  0
 16 18  1  0  0  0
 18 19  2  0  0  0
 19 20  1  0  0  0
 19 13  1  0  0  0
 10  1  1  0  0  0
 10  5  1  0  0  0
 37 31  1  0  0  0
 11 12  1  0  0  0
M  END
> <minimizedAffinity>
-7.57894

> <CNNscore>
0.8671872616

> <CNNaffinity>
7.6764054298

> <CNN_VS>
6.6568808556

> <CNNaffinity_variance>
0.0115789426

$$$$
[H]c1nc2c([H])c(OC([H])([H])C([H])([H])C([H])([H])N3C([H])([H])C([H])([H])N(C([H])([H])[H])C([H])([H])C3([H])[H])c(OC([H])([H])[H])c([H])c2c(N([H])c2c([H])c(OC([H])([H])[H])c(Cl)c([H])c2Cl)c1C#N


 37 40  0  0  0  0  0  0  0  0999 V2000
   54.0774   -5.1351   -7.5090 C   0  0  0  0  0  0  0  0  0  0  0  0
   54.5363   -4.1472   -8.3579 C   0  0  0  0  0  0  0  0  0  0  0  0
   55.8851   -3.8063   -8.2443 C   0  0  0  0  0  0  0  0  0  0  0  0
   56.6911   -4.4110   -7.3536 N   0  0  0  0  0  0  0  0  0  0  0  0
   56.2218   -5.3713   -6.5363 C   0  0  0  0  0  0  0  0  0  0  0  0
   57.0306   -6.0191   -5.6006 C   0  0  0  0  0  0  0  0  0  0  0  0
   56.5404   -7.0031   -4.7661 C   0  0  0  0  0  0  0  0  0  0  0  0
   55.2118   -7.3742   -4.8421 C   0  0  0  0  0  0  0  0  0  0  0  0
   54.3841   -6.7449   -5.7656 C   0  0  0  0  0  0  0  0  0  0  0  0
   54.9006   -5.7644   -6.5873 C   0  0  0  0  0  0  0  0  0  0  0  0
   52.7208   -5.4968   -7.6041 N   0  0  0  0  0  0  0  0  0  0  0  0
   52.3594   -5.9773   -8.4559 H   0  0  0  0  0  0  0  0  0  0  0  0
   50.8184   -5.8080   -4.3862 C   0  0  0  0  0  0  0  0  0  0  0  0
   51.6941   -6.0150   -5.4222 C   0  0  0  0  0  0  0  0  0  0  0  0
   51.7781   -5.2269   -6.5491 C   0  0  0  0  0  0  0  0  0  0  0  0
   50.9103   -4.1583   -6.6202 C   0  0  0  0  0  0  0  0  0  0  0  0
   50.9134   -3.0839   -7.9902 Cl  0  0  0  0  0  0  0  0  0  0  0  0
   50.0009   -3.8992   -5.6003 C   0  0  0  0  0  0  0  0  0  0  0  0
   49.9565   -4.7166   -4.4954 C   0  0  0  0  0  0  0  0  0  0  0  0
   48.8406   -4.4555   -3.1728 Cl  0  0  0  0  0  0  0  0  0  0  0  0
   51.4531   -6.1780   -2.1027 C   0  0  0  0  0  0  0  0  0  0  0  0
   50.7635   -6.6315   -3.2580 O   0  0  0  0  0  0  0  0  0  0  0  0
   54.7678   -8.3569   -3.9936 O   0  0  0  0  0  0  0  0  0  0  0  0
   54.2543   -8.1123   -2.7003 C   0  0  0  0  0  0  0  0  0  0  0  0
   53.6717   -3.4972   -9.3146 C   0  0  0  0  0  0  0  0  0  0  0  0
   52.9863   -2.9585  -10.0805 N   0  0  0  0  0  0  0  0  0  0  0  0
   57.3743   -7.6349   -3.8380 O   0  0  0  0  0  0  0  0  0  0  0  0
   58.0733   -6.9240   -2.8467 C   0  0  0  0  0  0  0  0  0  0  0  0
   59.1829   -7.8237   -2.3441 C   0  0  0  0  0  0  0  0  0  0  0  0
   60.4172   -7.5288   -3.1635 C   0  0  0  0  0  0  0  0  0  0  0  0
   61.1555   -8.6966   -3.5143 N   0  0  0  0  0  0  0  0  0  0  0  0
   60.3841   -9.9164   -3.4977 C   0  0  0  0  0  0  0  0  0  0  0  0
   60.9113  -10.9093   -2.4862 C   0  0  0  0  0  0  0  0  0  0  0  0
   62.2932  -11.2563   -2.7408 N   0  0  0  0  0  0  0  0  0  0  0  0
   62.9105  -11.5520   -1.4531 C   0  0  0  0  0  0  0  0  0  0  0  0
   63.0377  -10.1536   -3.3129 C   0  0  0  0  0  0  0  0  0  0  0  0
   62.4329   -8.8188   -2.8915 C   0  0  0  0  0  0  0  0  0  0  0  0
 21 22  1  0  0  0
 22 13  1  0  0  0
 13 14  2  0  0  0
 14 15  1  0  0  0
 15 11  1  0  0  0
 11  1  1  0  0  0
  1  2  2  0  0  0
  2  3  1  0  0  0
  3  4  2  0  0  0
  4  5  1  0  0  0
  5  6  2  0  0  0
  6  7  1  0  0  0
  7 27  1  0  0  0
 27 28  1  0  0  0
 28 29  1  0  0  0
 29 30  1  0  0  0
 30 31  1  0  0  0
 31 32  1  0  0  0
 32 33  1  0  0  0
 33 34  1  0  0  0
 34 35  1  0  0  0
 34 36  1  0  0  0
 36 37  1  0  0  0
  7  8  2  0  0  0
  8 23  1  0  0  0
 23 24  1  0  0  0
  8  9  1  0  0  0
  9 10  2  0  0  0
  2 25  1  0  0  0
 25 26  3  0  0  0
 15 16  2  0  0  0
 16 17  1  0  0  0
 16 18  1  0  0  0
 18 19  2  0  0  0
 19 20  1  0  0  0
 19 13  1  0  0  0
 10  1  1  0  0  0
 10  5  1  0  0  0
 37 31  1  0  0  0
 11 12  1  0  0  0
M  END
> <minimizedAffinity>
-7.36937

> <CNNscore>
0.8463665843

> <CNNaffinity>
7.5488061905

> <CNN_VS>
6.3890571594

> <CNNaffinity_variance>
0.0346311554

$$$$
[H]c1nc2c([H])c(OC([H])([H])C([H])([H])C([H])([H])N3C([H])([H])C([H])([H])N(C([H])([H])[H])C([H])([H])C3([H])[H])c(OC([H])([H])[H])c([H])c2c(N([H])c2c([H])c(OC([H])([H])[H])c(Cl)c([H])c2Cl)c1C#N


 37 40  0  0  0  0  0  0  0  0999 V2000
   53.6793   -6.1254   -5.3688 C   0  0  0  0  0  0  0  0  0  0  0  0
   53.7938   -6.4503   -4.0315 C   0  0  0  0  0  0  0  0  0  0  0  0
   55.0849   -6.4572   -3.5011 C   0  0  0  0  0  0  0  0  0  0  0  0
   56.1576   -6.1624   -4.2569 N   0  0  0  0  0  0  0  0  0  0  0  0
   56.0218   -5.8487   -5.5583 C   0  0  0  0  0  0  0  0  0  0  0  0
   57.1135   -5.5377   -6.3711 C   0  0  0  0  0  0  0  0  0  0  0  0
   56.9648   -5.2172   -7.7053 C   0  0  0  0  0  0  0  0  0  0  0  0
   55.7061   -5.1973   -8.2745 C   0  0  0  0  0  0  0  0  0  0  0  0
   54.6013   -5.5030   -7.4871 C   0  0  0  0  0  0  0  0  0  0  0  0
   54.7791   -5.8200   -6.1562 C   0  0  0  0  0  0  0  0  0  0  0  0
   52.3876   -6.1114   -5.9272 N   0  0  0  0  0  0  0  0  0  0  0  0
   51.8550   -6.9990   -6.0518 H   0  0  0  0  0  0  0  0  0  0  0  0
   51.6747   -2.9532   -7.8215 C   0  0  0  0  0  0  0  0  0  0  0  0
   52.2410   -4.1214   -7.3768 C   0  0  0  0  0  0  0  0  0  0  0  0
   51.7460   -4.8926   -6.3481 C   0  0  0  0  0  0  0  0  0  0  0  0
   50.5976   -4.4392   -5.7352 C   0  0  0  0  0  0  0  0  0  0  0  0
   49.8683   -5.3199   -4.4222 Cl  0  0  0  0  0  0  0  0  0  0  0  0
   49.9794   -3.2620   -6.1432 C   0  0  0  0  0  0  0  0  0  0  0  0
   50.5137   -2.5277   -7.1758 C   0  0  0  0  0  0  0  0  0  0  0  0
   49.7940   -1.0374   -7.7449 Cl  0  0  0  0  0  0  0  0  0  0  0  0
   53.6123   -1.9887   -8.8558 C   0  0  0  0  0  0  0  0  0  0  0  0
   52.2080   -2.1979   -8.8698 O   0  0  0  0  0  0  0  0  0  0  0  0
   55.6053   -4.8730   -9.6040 O   0  0  0  0  0  0  0  0  0  0  0  0
   56.0818   -3.6657  -10.1618 C   0  0  0  0  0  0  0  0  0  0  0  0
   52.6426   -6.7671   -3.2192 C   0  0  0  0  0  0  0  0  0  0  0  0
   51.7208   -7.0403   -2.5693 N   0  0  0  0  0  0  0  0  0  0  0  0
   58.0771   -4.9100   -8.4957 O   0  0  0  0  0  0  0  0  0  0  0  0
   58.7327   -5.8743   -9.2810 C   0  0  0  0  0  0  0  0  0  0  0  0
   60.1492   -5.9942   -8.7587 C   0  0  0  0  0  0  0  0  0  0  0  0
   60.7888   -7.1811   -9.4398 C   0  0  0  0  0  0  0  0  0  0  0  0
   62.1030   -7.4645   -8.9662 N   0  0  0  0  0  0  0  0  0  0  0  0
   62.1435   -8.2423   -7.7510 C   0  0  0  0  0  0  0  0  0  0  0  0
   62.8051   -7.4919   -6.6170 C   0  0  0  0  0  0  0  0  0  0  0  0
   64.1599   -7.1029   -6.9455 N   0  0  0  0  0  0  0  0  0  0  0  0
   64.4382   -5.8594   -6.2362 C   0  0  0  0  0  0  0  0  0  0  0  0
   64.3207   -6.8191   -8.3566 C   0  0  0  0  0  0  0  0  0  0  0  0
   63.0020   -6.3571   -8.9670 C   0  0  0  0  0  0  0  0  0  0  0  0
 21 22  1  0  0  0
 22 13  1  0  0  0
 13 14  2  0  0  0
 14 15  1  0  0  0
 15 11  1  0  0  0
 11  1  1  0  0  0
  1  2  2  0  0  0
  2  3  1  0  0  0
  3  4  2  0  0  0
  4  5  1  0  0  0
  5  6  2  0  0  0
  6  7  1  0  0  0
  7 27  1  0  0  0
 27 28  1  0  0  0
 28 29  1  0  0  0
 29 30  1  0  0  0
 30 31  1  0  0  0
 31 32  1  0  0  0
 32 33  1  0  0  0
 33 34  1  0  0  0
 34 35  1  0  0  0
 34 36  1  0  0  0
 36 37  1  0  0  0
  7  8  2  0  0  0
  8 23  1  0  0  0
 23 24  1  0  0  0
  8  9  1  0  0  0
  9 10  2  0  0  0
  2 25  1  0  0  0
 25 26  3  0  0  0
 15 16  2  0  0  0
 16 17  1  0  0  0
 16 18  1  0  0  0
 18 19  2  0  0  0
 19 20  1  0  0  0
 19 13  1  0  0  0
 10  1  1  0  0  0
 10  5  1  0  0  0
 37 31  1  0  0  0
 11 12  1  0  0  0
M  END
> <minimizedAffinity>
-7.45427

> <CNNscore>
0.6056051254

> <CNNaffinity>
7.6400475502

> <CNN_VS>
4.6268520355

> <CNNaffinity_variance>
0.0803223923

$$$$
[H]c1nc2c([H])c(OC([H])([H])C([H])([H])C([H])([H])N3C([H])([H])C([H])([H])N(C([H])([H])[H])C([H])([H])C3([H])[H])c(OC([H])([H])[H])c([H])c2c(N([H])c2c([H])c(OC([H])([H])[H])c(Cl)c([H])c2Cl)c1C#N


 37 40  0  0  0  0  0  0  0  0999 V2000
   54.0305   -5.3916   -7.1844 C   0  0  0  0  0  0  0  0  0  0  0  0
   54.5188   -4.4721   -8.0917 C   0  0  0  0  0  0  0  0  0  0  0  0
   55.8718   -4.1472   -7.9813 C   0  0  0  0  0  0  0  0  0  0  0  0
   56.6543   -4.7032   -7.0393 N   0  0  0  0  0  0  0  0  0  0  0  0
   56.1565   -5.5970   -6.1656 C   0  0  0  0  0  0  0  0  0  0  0  0
   56.9404   -6.1929   -5.1758 C   0  0  0  0  0  0  0  0  0  0  0  0
   56.4211   -7.1089   -4.2836 C   0  0  0  0  0  0  0  0  0  0  0  0
   55.0872   -7.4618   -4.3541 C   0  0  0  0  0  0  0  0  0  0  0  0
   54.2838   -6.8832   -5.3308 C   0  0  0  0  0  0  0  0  0  0  0  0
   54.8293   -5.9702   -6.2096 C   0  0  0  0  0  0  0  0  0  0  0  0
   52.6690   -5.7359   -7.2751 N   0  0  0  0  0  0  0  0  0  0  0  0
   52.3700   -6.5753   -7.8164 H   0  0  0  0  0  0  0  0  0  0  0  0
   50.2249   -2.9753   -6.5848 C   0  0  0  0  0  0  0  0  0  0  0  0
   51.2027   -3.7568   -7.1472 C   0  0  0  0  0  0  0  0  0  0  0  0
   51.6366   -4.9607   -6.6367 C   0  0  0  0  0  0  0  0  0  0  0  0
   51.0308   -5.3924   -5.4762 C   0  0  0  0  0  0  0  0  0  0  0  0
   51.4861   -6.8967   -4.7273 Cl  0  0  0  0  0  0  0  0  0  0  0  0
   50.0339   -4.6424   -4.8613 C   0  0  0  0  0  0  0  0  0  0  0  0
   49.6362   -3.4464   -5.4112 C   0  0  0  0  0  0  0  0  0  0  0  0
   48.3898   -2.4473   -4.6962 Cl  0  0  0  0  0  0  0  0  0  0  0  0
   50.6479   -1.1916   -8.1320 C   0  0  0  0  0  0  0  0  0  0  0  0
   49.8119   -1.7580   -7.1338 O   0  0  0  0  0  0  0  0  0  0  0  0
   54.6138   -8.3763   -3.4473 O   0  0  0  0  0  0  0  0  0  0  0  0
   53.9030   -8.0329   -2.2755 C   0  0  0  0  0  0  0  0  0  0  0  0
   53.6794   -3.8746   -9.1035 C   0  0  0  0  0  0  0  0  0  0  0  0
   52.9912   -3.4073   -9.9125 N   0  0  0  0  0  0  0  0  0  0  0  0
   57.2305   -7.6898   -3.3020 O   0  0  0  0  0  0  0  0  0  0  0  0
   58.0764   -6.9291   -2.4759 C   0  0  0  0  0  0  0  0  0  0  0  0
   59.2689   -7.7964   -2.1307 C   0  0  0  0  0  0  0  0  0  0  0  0
   60.3272   -7.5582   -3.1819 C   0  0  0  0  0  0  0  0  0  0  0  0
   60.4143   -8.6059   -4.1445 N   0  0  0  0  0  0  0  0  0  0  0  0
   60.4869   -9.9312   -3.5775 C   0  0  0  0  0  0  0  0  0  0  0  0
   61.7771  -10.6337   -3.9364 C   0  0  0  0  0  0  0  0  0  0  0  0
   61.9478  -10.7492   -5.3690 N   0  0  0  0  0  0  0  0  0  0  0  0
   63.3805  -10.7153   -5.6392 C   0  0  0  0  0  0  0  0  0  0  0  0
   61.3660   -9.6303   -6.0813 C   0  0  0  0  0  0  0  0  0  0  0  0
   61.3450   -8.3844   -5.2025 C   0  0  0  0  0  0  0  0  0  0  0  0
 21 22  1  0  0  0
 22 13  1  0  0  0
 13 14  2  0  0  0
 14 15  1  0  0  0
 15 11  1  0  0  0
 11  1  1  0  0  0
  1  2  2  0  0  0
  2  3  1  0  0  0
  3  4  2  0  0  0
  4  5  1  0  0  0
  5  6  2  0  0  0
  6  7  1  0  0  0
  7 27  1  0  0  0
 27 28  1  0  0  0
 28 29  1  0  0  0
 29 30  1  0  0  0
 30 31  1  0  0  0
 31 32  1  0  0  0
 32 33  1  0  0  0
 33 34  1  0  0  0
 34 35  1  0  0  0
 34 36  1  0  0  0
 36 37  1  0  0  0
  7  8  2  0  0  0
  8 23  1  0  0  0
 23 24  1  0  0  0
  8  9  1  0  0  0
  9 10  2  0  0  0
  2 25  1  0  0  0
 25 26  3  0  0  0
 15 16  2  0  0  0
 16 17  1  0  0  0
 16 18  1  0  0  0
 18 19  2  0  0  0
 19 20  1  0  0  0
 19 13  1  0  0  0
 10  1  1  0  0  0
 10  5  1  0  0  0
 37 31  1  0  0  0
 11 12  1  0  0  0
M  END
> <minimizedAffinity>
-7.17966

> <CNNscore>
0.5470273495

> <CNNaffinity>
7.3971619606

> <CNN_VS>
4.0464501381

> <CNNaffinity_variance>
0.1140518412

$$$$
[H]c1nc2c([H])c(OC([H])([H])C([H])([H])C([H])([H])N3C([H])([H])C([H])([H])N(C([H])([H])[H])C([H])([H])C3([H])[H])c(OC([H])([H])[H])c([H])c2c(N([H])c2c([H])c(OC([H])([H])[H])c(Cl)c([H])c2Cl)c1C#N


 37 40  0  0  0  0  0  0  0  0999 V2000
   51.0760   -3.9811   -6.5185 C   0  0  0  0  0  0  0  0  0  0  0  0
   50.1263   -2.9821   -6.6036 C   0  0  0  0  0  0  0  0  0  0  0  0
   50.4010   -1.9359   -7.4859 C   0  0  0  0  0  0  0  0  0  0  0  0
   51.5323   -1.9071   -8.2125 N   0  0  0  0  0  0  0  0  0  0  0  0
   52.4437   -2.8918   -8.1131 C   0  0  0  0  0  0  0  0  0  0  0  0
   53.6281   -2.8931   -8.8525 C   0  0  0  0  0  0  0  0  0  0  0  0
   54.5575   -3.9076   -8.7440 C   0  0  0  0  0  0  0  0  0  0  0  0
   54.3291   -4.9642   -7.8836 C   0  0  0  0  0  0  0  0  0  0  0  0
   53.1571   -4.9877   -7.1353 C   0  0  0  0  0  0  0  0  0  0  0  0
   52.2454   -3.9602   -7.2635 C   0  0  0  0  0  0  0  0  0  0  0  0
   50.8222   -5.0472   -5.6358 N   0  0  0  0  0  0  0  0  0  0  0  0
   50.0765   -5.7444   -5.8480 H   0  0  0  0  0  0  0  0  0  0  0  0
   53.6829   -5.6450   -3.2842 C   0  0  0  0  0  0  0  0  0  0  0  0
   52.9226   -5.4656   -4.4124 C   0  0  0  0  0  0  0  0  0  0  0  0
   51.5656   -5.2275   -4.4153 C   0  0  0  0  0  0  0  0  0  0  0  0
   50.9471   -5.1692   -3.1848 C   0  0  0  0  0  0  0  0  0  0  0  0
   49.2367   -4.8745   -3.0484 Cl  0  0  0  0  0  0  0  0  0  0  0  0
   51.6668   -5.3434   -2.0075 C   0  0  0  0  0  0  0  0  0  0  0  0
   53.0206   -5.5788   -2.0583 C   0  0  0  0  0  0  0  0  0  0  0  0
   53.9930   -5.8084   -0.6214 Cl  0  0  0  0  0  0  0  0  0  0  0  0
   55.9042   -4.7459   -3.3932 C   0  0  0  0  0  0  0  0  0  0  0  0
   55.0595   -5.8850   -3.3226 O   0  0  0  0  0  0  0  0  0  0  0  0
   55.2799   -5.9506   -7.8079 O   0  0  0  0  0  0  0  0  0  0  0  0
   56.2670   -6.0217   -6.7997 C   0  0  0  0  0  0  0  0  0  0  0  0
   48.9113   -3.0121   -5.8237 C   0  0  0  0  0  0  0  0  0  0  0  0
   47.9291   -3.0515   -5.2070 N   0  0  0  0  0  0  0  0  0  0  0  0
   55.7356   -3.8823   -9.4973 O   0  0  0  0  0  0  0  0  0  0  0  0
   55.7549   -4.1607  -10.8752 C   0  0  0  0  0  0  0  0  0  0  0  0
   57.2051   -4.3118  -11.2846 C   0  0  0  0  0  0  0  0  0  0  0  0
   57.4631   -3.3472  -12.4181 C   0  0  0  0  0  0  0  0  0  0  0  0
   57.4654   -3.9692  -13.7006 N   0  0  0  0  0  0  0  0  0  0  0  0
   58.5979   -3.6262  -14.5271 C   0  0  0  0  0  0  0  0  0  0  0  0
   58.1815   -2.9232  -15.7996 C   0  0  0  0  0  0  0  0  0  0  0  0
   57.2775   -3.7305  -16.5907 N   0  0  0  0  0  0  0  0  0  0  0  0
   56.3949   -2.8173  -17.3075 C   0  0  0  0  0  0  0  0  0  0  0  0
   56.4279   -4.5664  -15.7678 C   0  0  0  0  0  0  0  0  0  0  0  0
   56.2197   -3.9368  -14.3948 C   0  0  0  0  0  0  0  0  0  0  0  0
 21 22  1  0  0  0
 22 13  1  0  0  0
 13 14  2  0  0  0
 14 15  1  0  0  0
 15 11  1  0  0  0
 11  1  1  0  0  0
  1  2  2  0  0  0
  2  3  1  0  0  0
  3  4  2  0  0  0
  4  5  1  0  0  0
  5  6  2  0  0  0
  6  7  1  0  0  0
  7 27  1  0  0  0
 27 28  1  0  0  0
 28 29  1  0  0  0
 29 30  1  0  0  0
 30 31  1  0  0  0
 31 32  1  0  0  0
 32 33  1  0  0  0
 33 34  1  0  0  0
 34 35  1  0  0  0
 34 36  1  0  0  0
 36 37  1  0  0  0
  7  8  2  0  0  0
  8 23  1  0  0  0
 23 24  1  0  0  0
  8  9  1  0  0  0
  9 10  2  0  0  0
  2 25  1  0  0  0
 25 26  3  0  0  0
 15 16  2  0  0  0
 16 17  1  0  0  0
 16 18  1  0  0  0
 18 19  2  0  0  0
 19 20  1  0  0  0
 19 13  1  0  0  0
 10  1  1  0  0  0
 10  5  1  0  0  0
 37 31  1  0  0  0
 11 12  1  0  0  0
M  END
> <minimizedAffinity>
-8.27836

> <CNNscore>
0.5021590590

> <CNNaffinity>
7.7907958031

> <CNN_VS>
3.9122185707

> <CNNaffinity_variance>
0.0962009132

$$$$
[H]c1nc2c([H])c(OC([H])([H])C([H])([H])C([H])([H])N3C([H])([H])C([H])([H])N(C([H])([H])[H])C([H])([H])C3([H])[H])c(OC([H])([H])[H])c([H])c2c(N([H])c2c([H])c(OC([H])([H])[H])c(Cl)c([H])c2Cl)c1C#N


 37 40  0  0  0  0  0  0  0  0999 V2000
   53.9823   -5.2700   -7.3156 C   0  0  0  0  0  0  0  0  0  0  0  0
   54.4042   -4.3112   -8.2155 C   0  0  0  0  0  0  0  0  0  0  0  0
   55.7497   -3.9455   -8.1499 C   0  0  0  0  0  0  0  0  0  0  0  0
   56.5868   -4.5005   -7.2556 N   0  0  0  0  0  0  0  0  0  0  0  0
   56.1532   -5.4331   -6.3881 C   0  0  0  0  0  0  0  0  0  0  0  0
   56.9950   -6.0293   -5.4472 C   0  0  0  0  0  0  0  0  0  0  0  0
   56.5414   -6.9852   -4.5610 C   0  0  0  0  0  0  0  0  0  0  0  0
   55.2175   -7.3793   -4.5884 C   0  0  0  0  0  0  0  0  0  0  0  0
   54.3574   -6.8013   -5.5159 C   0  0  0  0  0  0  0  0  0  0  0  0
   54.8377   -5.8480   -6.3898 C   0  0  0  0  0  0  0  0  0  0  0  0
   52.6298   -5.6559   -7.3618 N   0  0  0  0  0  0  0  0  0  0  0  0
   52.3392   -6.5050   -7.8924 H   0  0  0  0  0  0  0  0  0  0  0  0
   50.1345   -2.9640   -6.5882 C   0  0  0  0  0  0  0  0  0  0  0  0
   51.1166   -3.7165   -7.1818 C   0  0  0  0  0  0  0  0  0  0  0  0
   51.5953   -4.9114   -6.6908 C   0  0  0  0  0  0  0  0  0  0  0  0
   51.0328   -5.3654   -5.5171 C   0  0  0  0  0  0  0  0  0  0  0  0
   51.5471   -6.8615   -4.7903 Cl  0  0  0  0  0  0  0  0  0  0  0  0
   50.0338   -4.6451   -4.8708 C   0  0  0  0  0  0  0  0  0  0  0  0
   49.5904   -3.4568   -5.4021 C   0  0  0  0  0  0  0  0  0  0  0  0
   48.3384   -2.4946   -4.6473 Cl  0  0  0  0  0  0  0  0  0  0  0  0
   50.5124   -1.1166   -8.0710 C   0  0  0  0  0  0  0  0  0  0  0  0
   49.6753   -1.7548   -7.1182 O   0  0  0  0  0  0  0  0  0  0  0  0
   54.8104   -8.3326   -3.6894 O   0  0  0  0  0  0  0  0  0  0  0  0
   54.1200   -8.0455   -2.4906 C   0  0  0  0  0  0  0  0  0  0  0  0
   53.5061   -3.7146   -9.1761 C   0  0  0  0  0  0  0  0  0  0  0  0
   52.7994   -3.2297   -9.9584 N   0  0  0  0  0  0  0  0  0  0  0  0
   57.4079   -7.5653   -3.6289 O   0  0  0  0  0  0  0  0  0  0  0  0
   57.8667   -6.8734   -2.4944 C   0  0  0  0  0  0  0  0  0  0  0  0
   58.4923   -7.8936   -1.5663 C   0  0  0  0  0  0  0  0  0  0  0  0
   57.8032   -9.2157   -1.8089 C   0  0  0  0  0  0  0  0  0  0  0  0
   58.7084  -10.3074   -1.9522 N   0  0  0  0  0  0  0  0  0  0  0  0
   59.0646  -10.9527   -0.7112 C   0  0  0  0  0  0  0  0  0  0  0  0
   60.5462  -10.8555   -0.4242 C   0  0  0  0  0  0  0  0  0  0  0  0
   61.3401  -11.4461   -1.4804 N   0  0  0  0  0  0  0  0  0  0  0  0
   62.6000  -10.7139   -1.5372 C   0  0  0  0  0  0  0  0  0  0  0  0
   60.7176  -11.2995   -2.7799 C   0  0  0  0  0  0  0  0  0  0  0  0
   59.8209  -10.0667   -2.8118 C   0  0  0  0  0  0  0  0  0  0  0  0
 21 22  1  0  0  0
 22 13  1  0  0  0
 13 14  2  0  0  0
 14 15  1  0  0  0
 15 11  1  0  0  0
 11  1  1  0  0  0
  1  2  2  0  0  0
  2  3  1  0  0  0
  3  4  2  0  0  0
  4  5  1  0  0  0
  5  6  2  0  0  0
  6  7  1  0  0  0
  7 27  1  0  0  0
 27 28  1  0  0  0
 28 29  1  0  0  0
 29 30  1  0  0  0
 30 31  1  0  0  0
 31 32  1  0  0  0
 32 33  1  0  0  0
 33 34  1  0  0  0
 34 35  1  0  0  0
 34 36  1  0  0  0
 36 37  1  0  0  0
  7  8  2  0  0  0
  8 23  1  0  0  0
 23 24  1  0  0  0
  8  9  1  0  0  0
  9 10  2  0  0  0
  2 25  1  0  0  0
 25 26  3  0  0  0
 15 16  2  0  0  0
 16 17  1  0  0  0
 16 18  1  0  0  0
 18 19  2  0  0  0
 19 20  1  0  0  0
 19 13  1  0  0  0
 10  1  1  0  0  0
 10  5  1  0  0  0
 37 31  1  0  0  0
 11 12  1  0  0  0
M  END
> <minimizedAffinity>
-7.35869

> <CNNscore>
0.4955669940

> <CNNaffinity>
7.1724863052

> <CNN_VS>
3.5544474125

> <CNNaffinity_variance>
0.0800183043

$$$$
[H]c1nc2c([H])c(OC([H])([H])C([H])([H])C([H])([H])N3C([H])([H])C([H])([H])N(C([H])([H])[H])C([H])([H])C3([H])[H])c(OC([H])([H])[H])c([H])c2c(N([H])c2c([H])c(OC([H])([H])[H])c(Cl)c([H])c2Cl)c1C#N


 37 40  0  0  0  0  0  0  0  0999 V2000
   54.0721   -4.9001   -7.0464 C   0  0  0  0  0  0  0  0  0  0  0  0
   54.9224   -4.3465   -7.9833 C   0  0  0  0  0  0  0  0  0  0  0  0
   56.2381   -4.1230   -7.5742 C   0  0  0  0  0  0  0  0  0  0  0  0
   56.6509   -4.4321   -6.3321 N   0  0  0  0  0  0  0  0  0  0  0  0
   55.8044   -4.9708   -5.4357 C   0  0  0  0  0  0  0  0  0  0  0  0
   56.1997   -5.3035   -4.1387 C   0  0  0  0  0  0  0  0  0  0  0  0
   55.3243   -5.8557   -3.2257 C   0  0  0  0  0  0  0  0  0  0  0  0
   54.0120   -6.0953   -3.5851 C   0  0  0  0  0  0  0  0  0  0  0  0
   53.5919   -5.7734   -4.8712 C   0  0  0  0  0  0  0  0  0  0  0  0
   54.4883   -5.2223   -5.7635 C   0  0  0  0  0  0  0  0  0  0  0  0
   52.7401   -5.1354   -7.4347 N   0  0  0  0  0  0  0  0  0  0  0  0
   52.5225   -5.8118   -8.1977 H   0  0  0  0  0  0  0  0  0  0  0  0
   49.9039   -4.4101   -5.0893 C   0  0  0  0  0  0  0  0  0  0  0  0
   50.9671   -5.0000   -5.7254 C   0  0  0  0  0  0  0  0  0  0  0  0
   51.6283   -4.4661   -6.8098 C   0  0  0  0  0  0  0  0  0  0  0  0
   51.1722   -3.2505   -7.2728 C   0  0  0  0  0  0  0  0  0  0  0  0
   51.9196   -2.4667   -8.6359 Cl  0  0  0  0  0  0  0  0  0  0  0  0
   50.0985   -2.6057   -6.6679 C   0  0  0  0  0  0  0  0  0  0  0  0
   49.4719   -3.1809   -5.5875 C   0  0  0  0  0  0  0  0  0  0  0  0
   48.1154   -2.4314   -4.7743 Cl  0  0  0  0  0  0  0  0  0  0  0  0
   50.0689   -5.3018   -2.8685 C   0  0  0  0  0  0  0  0  0  0  0  0
   49.2586   -4.9845   -3.9904 O   0  0  0  0  0  0  0  0  0  0  0  0
   53.1769   -6.6456   -2.6457 O   0  0  0  0  0  0  0  0  0  0  0  0
   53.1463   -8.0209   -2.3235 C   0  0  0  0  0  0  0  0  0  0  0  0
   54.4801   -4.0142   -9.3171 C   0  0  0  0  0  0  0  0  0  0  0  0
   54.1265   -3.7655  -10.3940 N   0  0  0  0  0  0  0  0  0  0  0  0
   55.7485   -6.1788   -1.9328 O   0  0  0  0  0  0  0  0  0  0  0  0
   55.9584   -5.2029   -0.9428 C   0  0  0  0  0  0  0  0  0  0  0  0
   57.2824   -5.5136   -0.2766 C   0  0  0  0  0  0  0  0  0  0  0  0
   58.3773   -4.9423   -1.1465 C   0  0  0  0  0  0  0  0  0  0  0  0
   59.4569   -5.8471   -1.3641 N   0  0  0  0  0  0  0  0  0  0  0  0
   59.2764   -6.7298   -2.4917 C   0  0  0  0  0  0  0  0  0  0  0  0
   59.2472   -8.1838   -2.0770 C   0  0  0  0  0  0  0  0  0  0  0  0
   60.4612   -8.5739   -1.3924 N   0  0  0  0  0  0  0  0  0  0  0  0
   60.1044   -9.6157   -0.4363 C   0  0  0  0  0  0  0  0  0  0  0  0
   61.0304   -7.4855   -0.6249 C   0  0  0  0  0  0  0  0  0  0  0  0
   59.9454   -6.5037   -0.1958 C   0  0  0  0  0  0  0  0  0  0  0  0
 21 22  1  0  0  0
 22 13  1  0  0  0
 13 14  2  0  0  0
 14 15  1  0  0  0
 15 11  1  0  0  0
 11  1  1  0  0  0
  1  2  2  0  0  0
  2  3  1  0  0  0
  3  4  2  0  0  0
  4  5  1  0  0  0
  5  6  2  0  0  0
  6  7  1  0  0  0
  7 27  1  0  0  0
 27 28  1  0  0  0
 28 29  1  0  0  0
 29 30  1  0  0  0
 30 31  1  0  0  0
 31 32  1  0  0  0
 32 33  1  0  0  0
 33 34  1  0  0  0
 34 35  1  0  0  0
 34 36  1  0  0  0
 36 37  1  0  0  0
  7  8  2  0  0  0
  8 23  1  0  0  0
 23 24  1  0  0  0
  8  9  1  0  0  0
  9 10  2  0  0  0
  2 25  1  0  0  0
 25 26  3  0  0  0
 15 16  2  0  0  0
 16 17  1  0  0  0
 16 18  1  0  0  0
 18 19  2  0  0  0
 19 20  1  0  0  0
 19 13  1  0  0  0
 10  1  1  0  0  0
 10  5  1  0  0  0
 37 31  1  0  0  0
 11 12  1  0  0  0
M  END
> <minimizedAffinity>
-8.36335

> <CNNscore>
0.4834592342

> <CNNaffinity>
7.6029334068

> <CNN_VS>
3.6757082939

> <CNNaffinity_variance>
0.1768700927

$$$$
[H]c1nc2c([H])c(OC([H])([H])C([H])([H])C([H])([H])N3C([H])([H])C([H])([H])N(C([H])([H])[H])C([H])([H])C3([H])[H])c(OC([H])([H])[H])c([H])c2c(N([H])c2c([H])c(OC([H])([H])[H])c(Cl)c([H])c2Cl)c1C#N


 37 40  0  0  0  0  0  0  0  0999 V2000
   54.0491   -4.9359   -7.0534 C   0  0  0  0  0  0  0  0  0  0  0  0
   54.9379   -4.4100   -7.9703 C   0  0  0  0  0  0  0  0  0  0  0  0
   56.2503   -4.2282   -7.5310 C   0  0  0  0  0  0  0  0  0  0  0  0
   56.6244   -4.5498   -6.2799 N   0  0  0  0  0  0  0  0  0  0  0  0
   55.7409   -5.0610   -5.4034 C   0  0  0  0  0  0  0  0  0  0  0  0
   56.0955   -5.4055   -4.0977 C   0  0  0  0  0  0  0  0  0  0  0  0
   55.1822   -5.9293   -3.2053 C   0  0  0  0  0  0  0  0  0  0  0  0
   53.8716   -6.1272   -3.5948 C   0  0  0  0  0  0  0  0  0  0  0  0
   53.4916   -5.7926   -4.8901 C   0  0  0  0  0  0  0  0  0  0  0  0
   54.4253   -5.2706   -5.7613 C   0  0  0  0  0  0  0  0  0  0  0  0
   52.7196   -5.1288   -7.4722 N   0  0  0  0  0  0  0  0  0  0  0  0
   52.5010   -5.7779   -8.2583 H   0  0  0  0  0  0  0  0  0  0  0  0
   49.8838   -4.3864   -5.1317 C   0  0  0  0  0  0  0  0  0  0  0  0
   50.9436   -4.9833   -5.7669 C   0  0  0  0  0  0  0  0  0  0  0  0
   51.6119   -4.4520   -6.8482 C   0  0  0  0  0  0  0  0  0  0  0  0
   51.1669   -3.2314   -7.3089 C   0  0  0  0  0  0  0  0  0  0  0  0
   51.9242   -2.4502   -8.6682 Cl  0  0  0  0  0  0  0  0  0  0  0  0
   50.0972   -2.5794   -6.7050 C   0  0  0  0  0  0  0  0  0  0  0  0
   49.4632   -3.1523   -5.6276 C   0  0  0  0  0  0  0  0  0  0  0  0
   48.1110   -2.3938   -4.8156 Cl  0  0  0  0  0  0  0  0  0  0  0  0
   50.0240   -5.2256   -2.8888 C   0  0  0  0  0  0  0  0  0  0  0  0
   49.2311   -4.9584   -4.0360 O   0  0  0  0  0  0  0  0  0  0  0  0
   52.9981   -6.6504   -2.6750 O   0  0  0  0  0  0  0  0  0  0  0  0
   52.9664   -8.0121   -2.3000 C   0  0  0  0  0  0  0  0  0  0  0  0
   54.5371   -4.0642   -9.3138 C   0  0  0  0  0  0  0  0  0  0  0  0
   54.2111   -3.7686  -10.3876 N   0  0  0  0  0  0  0  0  0  0  0  0
   55.5662   -6.2652   -1.9030 O   0  0  0  0  0  0  0  0  0  0  0  0
   56.1077   -5.3235   -1.0106 C   0  0  0  0  0  0  0  0  0  0  0  0
   57.0173   -6.0738   -0.0602 C   0  0  0  0  0  0  0  0  0  0  0  0
   56.8289   -7.5504   -0.3169 C   0  0  0  0  0  0  0  0  0  0  0  0
   58.0133   -8.2015   -0.7695 N   0  0  0  0  0  0  0  0  0  0  0  0
   59.1994   -7.3804   -0.7228 C   0  0  0  0  0  0  0  0  0  0  0  0
   59.7993   -7.1689   -2.0948 C   0  0  0  0  0  0  0  0  0  0  0  0
   60.1464   -8.4218   -2.7307 N   0  0  0  0  0  0  0  0  0  0  0  0
   59.9944   -8.2349   -4.1690 C   0  0  0  0  0  0  0  0  0  0  0  0
   59.2471   -9.4933   -2.3555 C   0  0  0  0  0  0  0  0  0  0  0  0
   57.8761   -8.9402   -1.9820 C   0  0  0  0  0  0  0  0  0  0  0  0
 21 22  1  0  0  0
 22 13  1  0  0  0
 13 14  2  0  0  0
 14 15  1  0  0  0
 15 11  1  0  0  0
 11  1  1  0  0  0
  1  2  2  0  0  0
  2  3  1  0  0  0
  3  4  2  0  0  0
  4  5  1  0  0  0
  5  6  2  0  0  0
  6  7  1  0  0  0
  7 27  1  0  0  0
 27 28  1  0  0  0
 28 29  1  0  0  0
 29 30  1  0  0  0
 30 31  1  0  0  0
 31 32  1  0  0  0
 32 33  1  0  0  0
 33 34  1  0  0  0
 34 35  1  0  0  0
 34 36  1  0  0  0
 36 37  1  0  0  0
  7  8  2  0  0  0
  8 23  1  0  0  0
 23 24  1  0  0  0
  8  9  1  0  0  0
  9 10  2  0  0  0
  2 25  1  0  0  0
 25 26  3  0  0  0
 15 16  2  0  0  0
 16 17  1  0  0  0
 16 18  1  0  0  0
 18 19  2  0  0  0
 19 20  1  0  0  0
 19 13  1  0  0  0
 10  1  1  0  0  0
 10  5  1  0  0  0
 37 31  1  0  0  0
 11 12  1  0  0  0
M  END
> <minimizedAffinity>
-8.27749

> <CNNscore>
0.4316264391

> <CNNaffinity>
7.5777220726

> <CNN_VS>
3.2707452774

> <CNNaffinity_variance>
0.1453257799

$$$$
[H]c1nc2c([H])c(OC([H])([H])C([H])([H])C([H])([H])N3C([H])([H])C([H])([H])N(C([H])([H])[H])C([H])([H])C3([H])[H])c(OC([H])([H])[H])c([H])c2c(N([H])c2c([H])c(OC([H])([H])[H])c(Cl)c([H])c2Cl)c1C#N


 37 40  0  0  0  0  0  0  0  0999 V2000
   51.8512   -4.2069   -6.9592 C   0  0  0  0  0  0  0  0  0  0  0  0
   51.0005   -3.1896   -7.3446 C   0  0  0  0  0  0  0  0  0  0  0  0
   51.5224   -2.2432   -8.2280 C   0  0  0  0  0  0  0  0  0  0  0  0
   52.7876   -2.3224   -8.6771 N   0  0  0  0  0  0  0  0  0  0  0  0
   53.5986   -3.3228   -8.2877 C   0  0  0  0  0  0  0  0  0  0  0  0
   54.9166   -3.4350   -8.7344 C   0  0  0  0  0  0  0  0  0  0  0  0
   55.7415   -4.4648   -8.3296 C   0  0  0  0  0  0  0  0  0  0  0  0
   55.2691   -5.4252   -7.4561 C   0  0  0  0  0  0  0  0  0  0  0  0
   53.9597   -5.3373   -6.9957 C   0  0  0  0  0  0  0  0  0  0  0  0
   53.1572   -4.2971   -7.4167 C   0  0  0  0  0  0  0  0  0  0  0  0
   51.3485   -5.1739   -6.0689 N   0  0  0  0  0  0  0  0  0  0  0  0
   50.6148   -5.8473   -6.3776 H   0  0  0  0  0  0  0  0  0  0  0  0
   53.6290   -5.6647   -3.1314 C   0  0  0  0  0  0  0  0  0  0  0  0
   53.1289   -5.5507   -4.4041 C   0  0  0  0  0  0  0  0  0  0  0  0
   51.8127   -5.2816   -4.7097 C   0  0  0  0  0  0  0  0  0  0  0  0
   50.9533   -5.1187   -3.6444 C   0  0  0  0  0  0  0  0  0  0  0  0
   49.2647   -4.7746   -3.8925 Cl  0  0  0  0  0  0  0  0  0  0  0  0
   51.4035   -5.2230   -2.3326 C   0  0  0  0  0  0  0  0  0  0  0  0
   52.7280   -5.4933   -2.0803 C   0  0  0  0  0  0  0  0  0  0  0  0
   53.3688   -5.6396   -0.4583 Cl  0  0  0  0  0  0  0  0  0  0  0  0
   55.8586   -4.8297   -2.8382 C   0  0  0  0  0  0  0  0  0  0  0  0
   54.9729   -5.9391   -2.8619 O   0  0  0  0  0  0  0  0  0  0  0  0
   56.1237   -6.4309   -7.0806 O   0  0  0  0  0  0  0  0  0  0  0  0
   56.7388   -6.5132   -5.8114 C   0  0  0  0  0  0  0  0  0  0  0  0
   49.6419   -3.1037   -6.8628 C   0  0  0  0  0  0  0  0  0  0  0  0
   48.5467   -3.0209   -6.4884 N   0  0  0  0  0  0  0  0  0  0  0  0
   57.0580   -4.5516   -8.7936 O   0  0  0  0  0  0  0  0  0  0  0  0
   57.3709   -4.9715  -10.0983 C   0  0  0  0  0  0  0  0  0  0  0  0
   58.8558   -5.2667  -10.1334 C   0  0  0  0  0  0  0  0  0  0  0  0
   59.2535   -5.7745   -8.7674 C   0  0  0  0  0  0  0  0  0  0  0  0
   60.6347   -6.1129   -8.6698 N   0  0  0  0  0  0  0  0  0  0  0  0
   61.2688   -6.3986   -9.9345 C   0  0  0  0  0  0  0  0  0  0  0  0
   61.7906   -7.8164  -10.0020 C   0  0  0  0  0  0  0  0  0  0  0  0
   62.7459   -8.0901   -8.9497 N   0  0  0  0  0  0  0  0  0  0  0  0
   62.6285   -9.5046   -8.6146 C   0  0  0  0  0  0  0  0  0  0  0  0
   62.4520   -7.3524   -7.7385 C   0  0  0  0  0  0  0  0  0  0  0  0
   60.9613   -7.0466   -7.6421 C   0  0  0  0  0  0  0  0  0  0  0  0
 21 22  1  0  0  0
 22 13  1  0  0  0
 13 14  2  0  0  0
 14 15  1  0  0  0
 15 11  1  0  0  0
 11  1  1  0  0  0
  1  2  2  0  0  0
  2  3  1  0  0  0
  3  4  2  0  0  0
  4  5  1  0  0  0
  5  6  2  0  0  0
  6  7  1  0  0  0
  7 27  1  0  0  0
 27 28  1  0  0  0
 28 29  1  0  0  0
 29 30  1  0  0  0
 30 31  1  0  0  0
 31 32  1  0  0  0
 32 33  1  0  0  0
 33 34  1  0  0  0
 34 35  1  0  0  0
 34 36  1  0  0  0
 36 37  1  0  0  0
  7  8  2  0  0  0
  8 23  1  0  0  0
 23 24  1  0  0  0
  8  9  1  0  0  0
  9 10  2  0  0  0
  2 25  1  0  0  0
 25 26  3  0  0  0
 15 16  2  0  0  0
 16 17  1  0  0  0
 16 18  1  0  0  0
 18 19  2  0  0  0
 19 20  1  0  0  0
 19 13  1  0  0  0
 10  1  1  0  0  0
 10  5  1  0  0  0
 37 31  1  0  0  0
 11 12  1  0  0  0
M  END
> <minimizedAffinity>
-7.40594

> <CNNscore>
0.3906649649

> <CNNaffinity>
7.5296773911

> <CNN_VS>
2.9415812492

> <CNNaffinity_variance>
0.0570984781

$$$$
[H]OC(=O)C(Oc1c([H])c([H])c(O[H])c(-c2c([H])c([H])c(C(C([H])([H])[H])(C([H])([H])[H])C([H])([H])[H])c([H])c2[H])c1[H])(C([H])([H])[H])C([H])([H])[H]


 26 27  0  0  0  0  0  0  0  0999 V2000
   63.2545   -7.2667   -7.0958 C   0  0  0  0  0  0  0  0  0  0  0  0
   62.5816   -7.6116   -5.9570 C   0  0  0  0  0  0  0  0  0  0  0  0
   61.9182   -8.8464   -5.8441 C   0  0  0  0  0  0  0  0  0  0  0  0
   61.9546   -9.7206   -6.8864 C   0  0  0  0  0  0  0  0  0  0  0  0
   62.6294   -9.3751   -8.0206 C   0  0  0  0  0  0  0  0  0  0  0  0
   63.3048   -8.1460   -8.1753 C   0  0  0  0  0  0  0  0  0  0  0  0
   63.9296   -7.9131   -9.3142 O   0  0  0  0  0  0  0  0  0  0  0  0
   64.3722   -7.7031  -10.0688 H   0  0  0  0  0  0  0  0  0  0  0  0
   64.6008   -3.2346   -7.4567 C   0  0  0  0  0  0  0  0  0  0  0  0
   64.4589   -4.0427   -8.5578 C   0  0  0  0  0  0  0  0  0  0  0  0
   64.0643   -5.3799   -8.5010 C   0  0  0  0  0  0  0  0  0  0  0  0
   63.8049   -5.9191   -7.2669 C   0  0  0  0  0  0  0  0  0  0  0  0
   63.9325   -5.1475   -6.1212 C   0  0  0  0  0  0  0  0  0  0  0  0
   64.3255   -3.8320   -6.2427 C   0  0  0  0  0  0  0  0  0  0  0  0
   65.7538   -1.4452   -8.8003 C   0  0  0  0  0  0  0  0  0  0  0  0
   64.9411   -1.8030   -7.6066 C   0  0  0  0  0  0  0  0  0  0  0  0
   65.6750   -1.3208   -6.3648 C   0  0  0  0  0  0  0  0  0  0  0  0
   63.5972   -1.0676   -7.5855 C   0  0  0  0  0  0  0  0  0  0  0  0
   61.2666   -9.1328   -4.6989 O   0  0  0  0  0  0  0  0  0  0  0  0
   61.4644   -8.8230   -3.3927 C   0  0  0  0  0  0  0  0  0  0  0  0
   61.5117   -7.2659   -3.3019 C   0  0  0  0  0  0  0  0  0  0  0  0
   60.4667   -9.3204   -2.3778 C   0  0  0  0  0  0  0  0  0  0  0  0
   62.8605   -9.2312   -2.9868 C   0  0  0  0  0  0  0  0  0  0  0  0
   63.6321  -10.0410   -3.7899 O   0  0  0  0  0  0  0  0  0  0  0  0
   63.3050   -8.8106   -1.9030 O   0  0  0  0  0  0  0  0  0  0  0  0
   63.1575  -10.8090   -4.2828 H   0  0  0  0  0  0  0  0  0  0  0  0
 15 16  1  0  0  0
 16 17  1  0  0  0
 16 18  1  0  0  0
 16  9  1  0  0  0
  9 10  2  0  0  0
 10 11  1  0  0  0
 11 12  2  0  0  0
 12 13  1  0  0  0
 13 14  2  0  0  0
 12  1  1  0  0  0
  1  2  2  0  0  0
  2  3  1  0  0  0
  3 19  1  0  0  0
 19 20  1  0  0  0
 20 21  1  0  0  0
 20 22  1  0  0  0
 20 23  1  0  0  0
 23 24  1  0  0  0
 23 25  2  0  0  0
  3  4  2  0  0  0
  4  5  1  0  0  0
  5  6  2  0  0  0
  6  7  1  0  0  0
 14  9  1  0  0  0
  6  1  1  0  0  0
 24 26  1  0  0  0
  7  8  1  0  0  0
M  END
> <minimizedAffinity>
1.77847

> <CNNscore>
0.5468811393

> <CNNaffinity>
4.4531450272

> <CNN_VS>
2.4353411198

> <CNNaffinity_variance>
0.6157109141

$$$$
[H]OC(=O)C(Oc1c([H])c([H])c(O[H])c(-c2c([H])c([H])c(C(C([H])([H])[H])(C([H])([H])[H])C([H])([H])[H])c([H])c2[H])c1[H])(C([H])([H])[H])C([H])([H])[H]


 26 27  0  0  0  0  0  0  0  0999 V2000
   63.6159   -7.8939   -9.7939 C   0  0  0  0  0  0  0  0  0  0  0  0
   63.7512   -9.1867  -10.2168 C   0  0  0  0  0  0  0  0  0  0  0  0
   63.2931   -9.5950  -11.4821 C   0  0  0  0  0  0  0  0  0  0  0  0
   62.7116   -8.6822  -12.3070 C   0  0  0  0  0  0  0  0  0  0  0  0
   62.5806   -7.3919  -11.8838 C   0  0  0  0  0  0  0  0  0  0  0  0
   63.0236   -6.9427  -10.6217 C   0  0  0  0  0  0  0  0  0  0  0  0
   62.8505   -5.6714  -10.3127 O   0  0  0  0  0  0  0  0  0  0  0  0
   62.7584   -4.8155  -10.0512 H   0  0  0  0  0  0  0  0  0  0  0  0
   64.2800   -6.7245   -5.7452 C   0  0  0  0  0  0  0  0  0  0  0  0
   64.9244   -6.1005   -6.7849 C   0  0  0  0  0  0  0  0  0  0  0  0
   64.7820   -6.4643   -8.1245 C   0  0  0  0  0  0  0  0  0  0  0  0
   63.9477   -7.5124   -8.4181 C   0  0  0  0  0  0  0  0  0  0  0  0
   63.2717   -8.1785   -7.4062 C   0  0  0  0  0  0  0  0  0  0  0  0
   63.4535   -7.7714   -6.1020 C   0  0  0  0  0  0  0  0  0  0  0  0
   65.7282   -5.6125   -4.0123 C   0  0  0  0  0  0  0  0  0  0  0  0
   64.4177   -6.2251   -4.3598 C   0  0  0  0  0  0  0  0  0  0  0  0
   64.1423   -7.3558   -3.3806 C   0  0  0  0  0  0  0  0  0  0  0  0
   63.2567   -5.2432   -4.1708 C   0  0  0  0  0  0  0  0  0  0  0  0
   63.4488  -10.8840  -11.8459 O   0  0  0  0  0  0  0  0  0  0  0  0
   63.8957  -11.5054  -12.9664 C   0  0  0  0  0  0  0  0  0  0  0  0
   62.7892  -12.5213  -13.3890 C   0  0  0  0  0  0  0  0  0  0  0  0
   64.2385  -10.6610  -14.1674 C   0  0  0  0  0  0  0  0  0  0  0  0
   65.0616  -12.3978  -12.6132 C   0  0  0  0  0  0  0  0  0  0  0  0
   65.7435  -12.2495  -11.4262 O   0  0  0  0  0  0  0  0  0  0  0  0
   65.3919  -13.2829  -13.4237 O   0  0  0  0  0  0  0  0  0  0  0  0
   65.9042  -11.2909  -11.0893 H   0  0  0  0  0  0  0  0  0  0  0  0
 15 16  1  0  0  0
 16 17  1  0  0  0
 16 18  1  0  0  0
 16  9  1  0  0  0
  9 10  2  0  0  0
 10 11  1  0  0  0
 11 12  2  0  0  0
 12 13  1  0  0  0
 13 14  2  0  0  0
 12  1  1  0  0  0
  1  2  2  0  0  0
  2  3  1  0  0  0
  3 19  1  0  0  0
 19 20  1  0  0  0
 20 21  1  0  0  0
 20 22  1  0  0  0
 20 23  1  0  0  0
 23 24  1  0  0  0
 23 25  2  0  0  0
  3  4  2  0  0  0
  4  5  1  0  0  0
  5  6  2  0  0  0
  6  7  1  0  0  0
 14  9  1  0  0  0
  6  1  1  0  0  0
 24 26  1  0  0  0
  7  8  1  0  0  0
M  END
> <minimizedAffinity>
0.79232

> <CNNscore>
0.5105379224

> <CNNaffinity>
4.0693335533

> <CNN_VS>
2.0775489807

> <CNNaffinity_variance>
0.3271643221

$$$$
[H]OC(=O)C(Oc1c([H])c([H])c(O[H])c(-c2c([H])c([H])c(C(C([H])([H])[H])(C([H])([H])[H])C([H])([H])[H])c([H])c2[H])c1[H])(C([H])([H])[H])C([H])([H])[H]


 26 27  0  0  0  0  0  0  0  0999 V2000
   57.6552   -4.8173  -10.9095 C   0  0  0  0  0  0  0  0  0  0  0  0
   58.8201   -5.2882  -10.3712 C   0  0  0  0  0  0  0  0  0  0  0  0
   58.9906   -5.4015   -8.9800 C   0  0  0  0  0  0  0  0  0  0  0  0
   57.9714   -5.0442   -8.1520 C   0  0  0  0  0  0  0  0  0  0  0  0
   56.8087   -4.5776   -8.6919 C   0  0  0  0  0  0  0  0  0  0  0  0
   56.5986   -4.4456  -10.0809 C   0  0  0  0  0  0  0  0  0  0  0  0
   55.4339   -3.9858  -10.4978 O   0  0  0  0  0  0  0  0  0  0  0  0
   54.6591   -3.6787  -10.8364 H   0  0  0  0  0  0  0  0  0  0  0  0
   57.3488   -3.7390  -15.0258 C   0  0  0  0  0  0  0  0  0  0  0  0
   56.3716   -4.4776  -14.4051 C   0  0  0  0  0  0  0  0  0  0  0  0
   56.4339   -4.8971  -13.0757 C   0  0  0  0  0  0  0  0  0  0  0  0
   57.5425   -4.5508  -12.3463 C   0  0  0  0  0  0  0  0  0  0  0  0
   58.5600   -3.8054  -12.9239 C   0  0  0  0  0  0  0  0  0  0  0  0
   58.4398   -3.4202  -14.2418 C   0  0  0  0  0  0  0  0  0  0  0  0
   58.0671   -2.1552  -16.8458 C   0  0  0  0  0  0  0  0  0  0  0  0
   57.1699   -3.2607  -16.4139 C   0  0  0  0  0  0  0  0  0  0  0  0
   55.7296   -2.8170  -16.6185 C   0  0  0  0  0  0  0  0  0  0  0  0
   57.3310   -4.5068  -17.2907 C   0  0  0  0  0  0  0  0  0  0  0  0
   60.1626   -5.8685   -8.5038 O   0  0  0  0  0  0  0  0  0  0  0  0
   60.9847   -6.8921   -8.8465 C   0  0  0  0  0  0  0  0  0  0  0  0
   61.4990   -7.5213   -7.5144 C   0  0  0  0  0  0  0  0  0  0  0  0
   60.4309   -8.0013   -9.7043 C   0  0  0  0  0  0  0  0  0  0  0  0
   62.2430   -6.3369   -9.4699 C   0  0  0  0  0  0  0  0  0  0  0  0
   63.1865   -5.6778   -8.7140 O   0  0  0  0  0  0  0  0  0  0  0  0
   62.4132   -6.4950  -10.6928 O   0  0  0  0  0  0  0  0  0  0  0  0
   62.8456   -5.0568   -7.9681 H   0  0  0  0  0  0  0  0  0  0  0  0
 15 16  1  0  0  0
 16 17  1  0  0  0
 16 18  1  0  0  0
 16  9  1  0  0  0
  9 10  2  0  0  0
 10 11  1  0  0  0
 11 12  2  0  0  0
 12 13  1  0  0  0
 13 14  2  0  0  0
 12  1  1  0  0  0
  1  2  2  0  0  0
  2  3  1  0  0  0
  3 19  1  0  0  0
 19 20  1  0  0  0
 20 21  1  0  0  0
 20 22  1  0  0  0
 20 23  1  0  0  0
 23 24  1  0  0  0
 23 25  2  0  0  0
  3  4  2  0  0  0
  4  5  1  0  0  0
  5  6  2  0  0  0
  6  7  1  0  0  0
 14  9  1  0  0  0
  6  1  1  0  0  0
 24 26  1  0  0  0
  7  8  1  0  0  0
M  END
> <minimizedAffinity>
-6.27351

> <CNNscore>
0.4900029898

> <CNNaffinity>
4.6040410995

> <CNN_VS>
2.2559938431

> <CNNaffinity_variance>
0.1256386042

$$$$
[H]OC(=O)C(Oc1c([H])c([H])c(O[H])c(-c2c([H])c([H])c(C(C([H])([H])[H])(C([H])([H])[H])C([H])([H])[H])c([H])c2[H])c1[H])(C([H])([H])[H])C([H])([H])[H]


 26 27  0  0  0  0  0  0  0  0999 V2000
   52.6147   -4.2050   -7.5531 C   0  0  0  0  0  0  0  0  0  0  0  0
   52.5226   -5.1157   -6.5379 C   0  0  0  0  0  0  0  0  0  0  0  0
   51.4599   -5.0813   -5.6176 C   0  0  0  0  0  0  0  0  0  0  0  0
   50.4976   -4.1276   -5.7457 C   0  0  0  0  0  0  0  0  0  0  0  0
   50.5902   -3.2219   -6.7617 C   0  0  0  0  0  0  0  0  0  0  0  0
   51.6411   -3.2199   -7.7033 C   0  0  0  0  0  0  0  0  0  0  0  0
   51.6333   -2.2997   -8.6493 O   0  0  0  0  0  0  0  0  0  0  0  0
   51.6768   -1.6961   -9.3149 H   0  0  0  0  0  0  0  0  0  0  0  0
   55.9447   -4.2525  -10.2196 C   0  0  0  0  0  0  0  0  0  0  0  0
   56.0972   -4.5126   -8.8800 C   0  0  0  0  0  0  0  0  0  0  0  0
   55.0563   -4.4707   -7.9516 C   0  0  0  0  0  0  0  0  0  0  0  0
   53.8041   -4.1469   -8.4077 C   0  0  0  0  0  0  0  0  0  0  0  0
   53.5936   -3.8746   -9.7516 C   0  0  0  0  0  0  0  0  0  0  0  0
   54.6624   -3.9330  -10.6199 C   0  0  0  0  0  0  0  0  0  0  0  0
   58.2577   -5.1525  -10.6398 C   0  0  0  0  0  0  0  0  0  0  0  0
   57.0815   -4.4005  -11.1541 C   0  0  0  0  0  0  0  0  0  0  0  0
   57.5513   -3.0266  -11.6069 C   0  0  0  0  0  0  0  0  0  0  0  0
   56.4873   -5.0511  -12.4076 C   0  0  0  0  0  0  0  0  0  0  0  0
   51.4213   -6.0019   -4.6332 O   0  0  0  0  0  0  0  0  0  0  0  0
   52.0458   -6.1364   -3.4360 C   0  0  0  0  0  0  0  0  0  0  0  0
   51.8667   -7.6240   -3.0000 C   0  0  0  0  0  0  0  0  0  0  0  0
   53.5121   -5.7970   -3.3490 C   0  0  0  0  0  0  0  0  0  0  0  0
   51.2767   -5.3767   -2.3817 C   0  0  0  0  0  0  0  0  0  0  0  0
   51.9220   -4.6088   -1.4382 O   0  0  0  0  0  0  0  0  0  0  0  0
   50.0345   -5.4556   -2.3880 O   0  0  0  0  0  0  0  0  0  0  0  0
   52.8032   -4.9739   -1.0532 H   0  0  0  0  0  0  0  0  0  0  0  0
 15 16  1  0  0  0
 16 17  1  0  0  0
 16 18  1  0  0  0
 16  9  1  0  0  0
  9 10  2  0  0  0
 10 11  1  0  0  0
 11 12  2  0  0  0
 12 13  1  0  0  0
 13 14  2  0  0  0
 12  1  1  0  0  0
  1  2  2  0  0  0
  2  3  1  0  0  0
  3 19  1  0  0  0
 19 20  1  0  0  0
 20 21  1  0  0  0
 20 22  1  0  0  0
 20 23  1  0  0  0
 23 24  1  0  0  0
 23 25  2  0  0  0
  3  4  2  0  0  0
  4  5  1  0  0  0
  5  6  2  0  0  0
  6  7  1  0  0  0
 14  9  1  0  0  0
  6  1  1  0  0  0
 24 26  1  0  0  0
  7  8  1  0  0  0
M  END
> <minimizedAffinity>
-8.83002

> <CNNscore>
0.4163804650

> <CNNaffinity>
6.1374545097

> <CNN_VS>
2.5555162430

> <CNNaffinity_variance>
0.3778440356

$$$$
[H]OC(=O)C(Oc1c([H])c([H])c(O[H])c(-c2c([H])c([H])c(C(C([H])([H])[H])(C([H])([H])[H])C([H])([H])[H])c([H])c2[H])c1[H])(C([H])([H])[H])C([H])([H])[H]


 26 27  0  0  0  0  0  0  0  0999 V2000
   55.6781   -4.5697   -8.9874 C   0  0  0  0  0  0  0  0  0  0  0  0
   54.9718   -4.8440   -7.8498 C   0  0  0  0  0  0  0  0  0  0  0  0
   53.6738   -4.3395   -7.6542 C   0  0  0  0  0  0  0  0  0  0  0  0
   53.1048   -3.5699   -8.6217 C   0  0  0  0  0  0  0  0  0  0  0  0
   53.8108   -3.3003   -9.7575 C   0  0  0  0  0  0  0  0  0  0  0  0
   55.1155   -3.7840   -9.9910 C   0  0  0  0  0  0  0  0  0  0  0  0
   55.7083   -3.4655  -11.1263 O   0  0  0  0  0  0  0  0  0  0  0  0
   56.1581   -3.2798  -11.8830 H   0  0  0  0  0  0  0  0  0  0  0  0
   59.6766   -5.9572   -9.5242 C   0  0  0  0  0  0  0  0  0  0  0  0
   59.1452   -5.7735   -8.2714 C   0  0  0  0  0  0  0  0  0  0  0  0
   57.8613   -5.2829   -8.0305 C   0  0  0  0  0  0  0  0  0  0  0  0
   57.0844   -4.9626   -9.1145 C   0  0  0  0  0  0  0  0  0  0  0  0
   57.5716   -5.1285  -10.4027 C   0  0  0  0  0  0  0  0  0  0  0  0
   58.8483   -5.6182  -10.5756 C   0  0  0  0  0  0  0  0  0  0  0  0
   61.7363   -6.2063  -10.9497 C   0  0  0  0  0  0  0  0  0  0  0  0
   61.0152   -6.5619   -9.6979 C   0  0  0  0  0  0  0  0  0  0  0  0
   60.9038   -8.0768   -9.6225 C   0  0  0  0  0  0  0  0  0  0  0  0
   61.8024   -6.1578   -8.4471 C   0  0  0  0  0  0  0  0  0  0  0  0
   53.0247   -4.6385   -6.5108 O   0  0  0  0  0  0  0  0  0  0  0  0
   51.8515   -5.2554   -6.2203 C   0  0  0  0  0  0  0  0  0  0  0  0
   50.7494   -4.1506   -6.2243 C   0  0  0  0  0  0  0  0  0  0  0  0
   51.3905   -6.3788   -7.1137 C   0  0  0  0  0  0  0  0  0  0  0  0
   51.8695   -5.7142   -4.7817 C   0  0  0  0  0  0  0  0  0  0  0  0
   50.8521   -5.3885   -3.9130 O   0  0  0  0  0  0  0  0  0  0  0  0
   52.8305   -6.4053   -4.3964 O   0  0  0  0  0  0  0  0  0  0  0  0
   50.4491   -4.4451   -3.9887 H   0  0  0  0  0  0  0  0  0  0  0  0
 15 16  1  0  0  0
 16 17  1  0  0  0
 16 18  1  0  0  0
 16  9  1  0  0  0
  9 10  2  0  0  0
 10 11  1  0  0  0
 11 12  2  0  0  0
 12 13  1  0  0  0
 13 14  2  0  0  0
 12  1  1  0  0  0
  1  2  2  0  0  0
  2  3  1  0  0  0
  3 19  1  0  0  0
 19 20  1  0  0  0
 20 21  1  0  0  0
 20 22  1  0  0  0
 20 23  1  0  0  0
 23 24  1  0  0  0
 23 25  2  0  0  0
  3  4  2  0  0  0
  4  5  1  0  0  0
  5  6  2  0  0  0
  6  7  1  0  0  0
 14  9  1  0  0  0
  6  1  1  0  0  0
 24 26  1  0  0  0
  7  8  1  0  0  0
M  END
> <minimizedAffinity>
-7.79781

> <CNNscore>
0.4042919874

> <CNNaffinity>
5.5344891548

> <CNN_VS>
2.2375495434

> <CNNaffinity_variance>
0.0783153325

$$$$
[H]OC(=O)C(Oc1c([H])c([H])c(O[H])c(-c2c([H])c([H])c(C(C([H])([H])[H])(C([H])([H])[H])C([H])([H])[H])c([H])c2[H])c1[H])(C([H])([H])[H])C([H])([H])[H]


 26 27  0  0  0  0  0  0  0  0999 V2000
   55.6328   -4.5267   -9.2483 C   0  0  0  0  0  0  0  0  0  0  0  0
   55.7032   -3.9477  -10.4845 C   0  0  0  0  0  0  0  0  0  0  0  0
   56.9060   -3.9196  -11.2125 C   0  0  0  0  0  0  0  0  0  0  0  0
   58.0212   -4.4892  -10.6798 C   0  0  0  0  0  0  0  0  0  0  0  0
   57.9475   -5.0693   -9.4472 C   0  0  0  0  0  0  0  0  0  0  0  0
   56.7620   -5.1157   -8.6835 C   0  0  0  0  0  0  0  0  0  0  0  0
   56.7997   -5.7043   -7.5028 O   0  0  0  0  0  0  0  0  0  0  0  0
   56.7688   -6.0938   -6.6925 H   0  0  0  0  0  0  0  0  0  0  0  0
   52.0206   -4.4650   -6.9793 C   0  0  0  0  0  0  0  0  0  0  0  0
   52.3277   -3.4597   -7.8627 C   0  0  0  0  0  0  0  0  0  0  0  0
   53.5104   -3.4013   -8.6009 C   0  0  0  0  0  0  0  0  0  0  0  0
   54.4225   -4.4111   -8.4298 C   0  0  0  0  0  0  0  0  0  0  0  0
   54.1631   -5.4517   -7.5497 C   0  0  0  0  0  0  0  0  0  0  0  0
   52.9760   -5.4533   -6.8495 C   0  0  0  0  0  0  0  0  0  0  0  0
   49.9153   -3.2417   -6.3407 C   0  0  0  0  0  0  0  0  0  0  0  0
   50.7084   -4.4996   -6.2975 C   0  0  0  0  0  0  0  0  0  0  0  0
   50.9007   -4.8955   -4.8417 C   0  0  0  0  0  0  0  0  0  0  0  0
   49.9576   -5.6740   -6.9336 C   0  0  0  0  0  0  0  0  0  0  0  0
   56.9189   -3.3313  -12.4257 O   0  0  0  0  0  0  0  0  0  0  0  0
   56.7950   -3.7825  -13.6994 C   0  0  0  0  0  0  0  0  0  0  0  0
   56.5118   -5.3143  -13.6083 C   0  0  0  0  0  0  0  0  0  0  0  0
   55.7400   -3.1636  -14.5808 C   0  0  0  0  0  0  0  0  0  0  0  0
   58.1393   -3.7240  -14.3847 C   0  0  0  0  0  0  0  0  0  0  0  0
   59.2982   -3.5119  -13.6720 O   0  0  0  0  0  0  0  0  0  0  0  0
   58.1779   -3.8793  -15.6191 O   0  0  0  0  0  0  0  0  0  0  0  0
   59.2582   -2.8425  -12.8920 H   0  0  0  0  0  0  0  0  0  0  0  0
 15 16  1  0  0  0
 16 17  1  0  0  0
 16 18  1  0  0  0
 16  9  1  0  0  0
  9 10  2  0  0  0
 10 11  1  0  0  0
 11 12  2  0  0  0
 12 13  1  0  0  0
 13 14  2  0  0  0
 12  1  1  0  0  0
  1  2  2  0  0  0
  2  3  1  0  0  0
  3 19  1  0  0  0
 19 20  1  0  0  0
 20 21  1  0  0  0
 20 22  1  0  0  0
 20 23  1  0  0  0
 23 24  1  0  0  0
 23 25  2  0  0  0
  3  4  2  0  0  0
  4  5  1  0  0  0
  5  6  2  0  0  0
  6  7  1  0  0  0
 14  9  1  0  0  0
  6  1  1  0  0  0
 24 26  1  0  0  0
  7  8  1  0  0  0
M  END
> <minimizedAffinity>
-8.95074

> <CNNscore>
0.4009576440

> <CNNaffinity>
6.0015368462

> <CNN_VS>
2.4063620567

> <CNNaffinity_variance>
0.1331193447

$$$$
[H]OC(=O)C(Oc1c([H])c([H])c(O[H])c(-c2c([H])c([H])c(C(C([H])([H])[H])(C([H])([H])[H])C([H])([H])[H])c([H])c2[H])c1[H])(C([H])([H])[H])C([H])([H])[H]


 26 27  0  0  0  0  0  0  0  0999 V2000
   55.7393   -4.6667   -8.8349 C   0  0  0  0  0  0  0  0  0  0  0  0
   55.9737   -4.7172  -10.1807 C   0  0  0  0  0  0  0  0  0  0  0  0
   57.2578   -4.9783  -10.6909 C   0  0  0  0  0  0  0  0  0  0  0  0
   58.2870   -5.1950   -9.8274 C   0  0  0  0  0  0  0  0  0  0  0  0
   58.0497   -5.1472   -8.4848 C   0  0  0  0  0  0  0  0  0  0  0  0
   56.7780   -4.8853   -7.9326 C   0  0  0  0  0  0  0  0  0  0  0  0
   56.6575   -4.8644   -6.6185 O   0  0  0  0  0  0  0  0  0  0  0  0
   56.5188   -4.8395   -5.7300 H   0  0  0  0  0  0  0  0  0  0  0  0
   51.8409   -3.6891   -7.4039 C   0  0  0  0  0  0  0  0  0  0  0  0
   52.4798   -2.9045   -8.3323 C   0  0  0  0  0  0  0  0  0  0  0  0
   53.7693   -3.1472   -8.8070 C   0  0  0  0  0  0  0  0  0  0  0  0
   54.4393   -4.2368   -8.3121 C   0  0  0  0  0  0  0  0  0  0  0  0
   53.8410   -5.0632   -7.3722 C   0  0  0  0  0  0  0  0  0  0  0  0
   52.5643   -4.7710   -6.9428 C   0  0  0  0  0  0  0  0  0  0  0  0
   50.0771   -3.7380   -5.6086 C   0  0  0  0  0  0  0  0  0  0  0  0
   50.4410   -3.4137   -7.0143 C   0  0  0  0  0  0  0  0  0  0  0  0
   49.4969   -4.1657   -7.9397 C   0  0  0  0  0  0  0  0  0  0  0  0
   50.2194   -1.9325   -7.3377 C   0  0  0  0  0  0  0  0  0  0  0  0
   57.4325   -5.0124  -12.0276 O   0  0  0  0  0  0  0  0  0  0  0  0
   56.9801   -4.2600  -13.0622 C   0  0  0  0  0  0  0  0  0  0  0  0
   56.3427   -5.2459  -14.0903 C   0  0  0  0  0  0  0  0  0  0  0  0
   55.9771   -3.1720  -12.7740 C   0  0  0  0  0  0  0  0  0  0  0  0
   58.1561   -3.6905  -13.8193 C   0  0  0  0  0  0  0  0  0  0  0  0
   57.9822   -2.9930  -14.9937 O   0  0  0  0  0  0  0  0  0  0  0  0
   59.2964   -3.8617  -13.3507 O   0  0  0  0  0  0  0  0  0  0  0  0
   57.2614   -3.3334  -15.6439 H   0  0  0  0  0  0  0  0  0  0  0  0
 15 16  1  0  0  0
 16 17  1  0  0  0
 16 18  1  0  0  0
 16  9  1  0  0  0
  9 10  2  0  0  0
 10 11  1  0  0  0
 11 12  2  0  0  0
 12 13  1  0  0  0
 13 14  2  0  0  0
 12  1  1  0  0  0
  1  2  2  0  0  0
  2  3  1  0  0  0
  3 19  1  0  0  0
 19 20  1  0  0  0
 20 21  1  0  0  0
 20 22  1  0  0  0
 20 23  1  0  0  0
 23 24  1  0  0  0
 23 25  2  0  0  0
  3  4  2  0  0  0
  4  5  1  0  0  0
  5  6  2  0  0  0
  6  7  1  0  0  0
 14  9  1  0  0  0
  6  1  1  0  0  0
 24 26  1  0  0  0
  7  8  1  0  0  0
M  END
> <minimizedAffinity>
-8.69151

> <CNNscore>
0.3838023841

> <CNNaffinity>
5.9459252357

> <CNN_VS>
2.2820603848

> <CNNaffinity_variance>
0.0996679738

$$$$
[H]OC(=O)C(Oc1c([H])c([H])c(O[H])c(-c2c([H])c([H])c(C(C([H])([H])[H])(C([H])([H])[H])C([H])([H])[H])c([H])c2[H])c1[H])(C([H])([H])[H])C([H])([H])[H]


 26 27  0  0  0  0  0  0  0  0999 V2000
   58.8296   -5.3762  -10.3726 C   0  0  0  0  0  0  0  0  0  0  0  0
   57.7429   -5.4153   -9.5443 C   0  0  0  0  0  0  0  0  0  0  0  0
   56.5613   -4.7183   -9.8532 C   0  0  0  0  0  0  0  0  0  0  0  0
   56.4942   -3.9975  -11.0055 C   0  0  0  0  0  0  0  0  0  0  0  0
   57.5791   -3.9627  -11.8320 C   0  0  0  0  0  0  0  0  0  0  0  0
   58.7834   -4.6446  -11.5574 C   0  0  0  0  0  0  0  0  0  0  0  0
   59.7717   -4.5462  -12.4264 O   0  0  0  0  0  0  0  0  0  0  0  0
   60.4765   -4.5143  -12.9847 H   0  0  0  0  0  0  0  0  0  0  0  0
   62.5897   -6.8604   -9.0091 C   0  0  0  0  0  0  0  0  0  0  0  0
   62.3507   -6.6345  -10.3423 C   0  0  0  0  0  0  0  0  0  0  0  0
   61.1305   -6.1911  -10.8541 C   0  0  0  0  0  0  0  0  0  0  0  0
   60.1071   -5.9701   -9.9683 C   0  0  0  0  0  0  0  0  0  0  0  0
   60.2939   -6.1825   -8.6101 C   0  0  0  0  0  0  0  0  0  0  0  0
   61.5230   -6.6204   -8.1660 C   0  0  0  0  0  0  0  0  0  0  0  0
   64.6458   -8.2721   -9.3509 C   0  0  0  0  0  0  0  0  0  0  0  0
   63.9362   -7.2490   -8.5363 C   0  0  0  0  0  0  0  0  0  0  0  0
   63.8477   -7.7533   -7.1042 C   0  0  0  0  0  0  0  0  0  0  0  0
   64.7237   -5.9376   -8.4486 C   0  0  0  0  0  0  0  0  0  0  0  0
   55.5214   -4.7889   -8.9977 O   0  0  0  0  0  0  0  0  0  0  0  0
   55.0043   -3.9522   -8.0630 C   0  0  0  0  0  0  0  0  0  0  0  0
   56.1433   -3.6674   -7.0350 C   0  0  0  0  0  0  0  0  0  0  0  0
   54.4422   -2.6288   -8.5163 C   0  0  0  0  0  0  0  0  0  0  0  0
   53.9786   -4.6936   -7.2393 C   0  0  0  0  0  0  0  0  0  0  0  0
   52.6645   -4.7812   -7.6412 O   0  0  0  0  0  0  0  0  0  0  0  0
   54.3519   -5.2343   -6.1821 O   0  0  0  0  0  0  0  0  0  0  0  0
   52.2470   -3.9491   -8.0788 H   0  0  0  0  0  0  0  0  0  0  0  0
 15 16  1  0  0  0
 16 17  1  0  0  0
 16 18  1  0  0  0
 16  9  1  0  0  0
  9 10  2  0  0  0
 10 11  1  0  0  0
 11 12  2  0  0  0
 12 13  1  0  0  0
 13 14  2  0  0  0
 12  1  1  0  0  0
  1  2  2  0  0  0
  2  3  1  0  0  0
  3 19  1  0  0  0
 19 20  1  0  0  0
 20 21  1  0  0  0
 20 22  1  0  0  0
 20 23  1  0  0  0
 23 24  1  0  0  0
 23 25  2  0  0  0
  3  4  2  0  0  0
  4  5  1  0  0  0
  5  6  2  0  0  0
  6  7  1  0  0  0
 14  9  1  0  0  0
  6  1  1  0  0  0
 24 26  1  0  0  0
  7  8  1  0  0  0
M  END
> <minimizedAffinity>
-6.01834

> <CNNscore>
0.3837228119

> <CNNaffinity>
4.6380648613

> <CNN_VS>
1.7797312737

> <CNNaffinity_variance>
0.1668896973

$$$$
[H]OC(=O)C(Oc1c([H])c([H])c(O[H])c(-c2c([H])c([H])c(C(C([H])([H])[H])(C([H])([H])[H])C([H])([H])[H])c([H])c2[H])c1[H])(C([H])([H])[H])C([H])([H])[H]


 26 27  0  0  0  0  0  0  0  0999 V2000
   56.6510   -4.7951   -8.9632 C   0  0  0  0  0  0  0  0  0  0  0  0
   57.7775   -5.2683   -8.3503 C   0  0  0  0  0  0  0  0  0  0  0  0
   58.9669   -5.4827   -9.0691 C   0  0  0  0  0  0  0  0  0  0  0  0
   59.0006   -5.2045  -10.4007 C   0  0  0  0  0  0  0  0  0  0  0  0
   57.8758   -4.7294  -11.0093 C   0  0  0  0  0  0  0  0  0  0  0  0
   56.6625   -4.5036  -10.3255 C   0  0  0  0  0  0  0  0  0  0  0  0
   55.6343   -4.0388  -11.0099 O   0  0  0  0  0  0  0  0  0  0  0  0
   54.9028   -3.7222  -11.4271 H   0  0  0  0  0  0  0  0  0  0  0  0
   52.8881   -4.8922   -6.9552 C   0  0  0  0  0  0  0  0  0  0  0  0
   53.1475   -3.9760   -7.9446 C   0  0  0  0  0  0  0  0  0  0  0  0
   54.3703   -3.8663   -8.6080 C   0  0  0  0  0  0  0  0  0  0  0  0
   55.3748   -4.7269   -8.2455 C   0  0  0  0  0  0  0  0  0  0  0  0
   55.1669   -5.6722   -7.2517 C   0  0  0  0  0  0  0  0  0  0  0  0
   53.9363   -5.7314   -6.6338 C   0  0  0  0  0  0  0  0  0  0  0  0
   50.6740   -3.7963   -6.4721 C   0  0  0  0  0  0  0  0  0  0  0  0
   51.5389   -5.0015   -6.3591 C   0  0  0  0  0  0  0  0  0  0  0  0
   51.6598   -5.3686   -4.8881 C   0  0  0  0  0  0  0  0  0  0  0  0
   50.9052   -6.2275   -7.0246 C   0  0  0  0  0  0  0  0  0  0  0  0
   60.0470   -5.9549   -8.4143 O   0  0  0  0  0  0  0  0  0  0  0  0
   61.0781   -6.7702   -8.7508 C   0  0  0  0  0  0  0  0  0  0  0  0
   60.4586   -7.9973   -9.4894 C   0  0  0  0  0  0  0  0  0  0  0  0
   62.1816   -6.2133   -9.6139 C   0  0  0  0  0  0  0  0  0  0  0  0
   61.6609   -7.3833   -7.4999 C   0  0  0  0  0  0  0  0  0  0  0  0
   60.9007   -7.5545   -6.3647 O   0  0  0  0  0  0  0  0  0  0  0  0
   62.8534   -7.7396   -7.5197 O   0  0  0  0  0  0  0  0  0  0  0  0
   60.2309   -6.8108   -6.1271 H   0  0  0  0  0  0  0  0  0  0  0  0
 15 16  1  0  0  0
 16 17  1  0  0  0
 16 18  1  0  0  0
 16  9  1  0  0  0
  9 10  2  0  0  0
 10 11  1  0  0  0
 11 12  2  0  0  0
 12 13  1  0  0  0
 13 14  2  0  0  0
 12  1  1  0  0  0
  1  2  2  0  0  0
  2  3  1  0  0  0
  3 19  1  0  0  0
 19 20  1  0  0  0
 20 21  1  0  0  0
 20 22  1  0  0  0
 20 23  1  0  0  0
 23 24  1  0  0  0
 23 25  2  0  0  0
  3  4  2  0  0  0
  4  5  1  0  0  0
  5  6  2  0  0  0
  6  7  1  0  0  0
 14  9  1  0  0  0
  6  1  1  0  0  0
 24 26  1  0  0  0
  7  8  1  0  0  0
M  END
> <minimizedAffinity>
-8.80313

> <CNNscore>
0.3587320745

> <CNNaffinity>
5.7126674652

> <CNN_VS>
2.0493171215

> <CNNaffinity_variance>
0.2140323222

$$$$
[H]OC(=O)[C@@]([H])(N([H])C(=O)[C@@]([H])(N1C([H])([H])C([H])([H])[C@@]([H])(C(=O)O[H])C([H])([H])[C@@]([H])(O[H])[C@]([H])(O[H])[C@@]1([H])O[H])C([H])(C([H])([H])[H])C([H])([H])[H])C([H])([H])c1c([H])nc([H])c([H])c1[H]


 38 39  0  0  0  0  0  0  0  0999 V2000
   52.7032   -7.1032   -2.9107 C   0  0  0  0  0  0  0  0  0  0  0  0
   54.0491   -7.2879   -3.2622 N   0  0  0  0  0  0  0  0  0  0  0  0
   54.6460   -8.4527   -2.7608 C   0  0  0  0  0  0  0  0  0  0  0  0
   56.0090   -8.3460   -2.1518 C   0  0  0  0  0  0  0  0  0  0  0  0
   56.7286   -7.0615   -2.3459 C   0  0  0  0  0  0  0  0  0  0  0  0
   57.6322   -7.1056   -3.5572 C   0  0  0  0  0  0  0  0  0  0  0  0
   56.8841   -6.4253   -4.6821 C   0  0  0  0  0  0  0  0  0  0  0  0
   57.8166   -6.2803   -5.7296 O   0  0  0  0  0  0  0  0  0  0  0  0
   55.7478   -7.3390   -5.0815 C   0  0  0  0  0  0  0  0  0  0  0  0
   55.6718   -7.2067   -6.4924 O   0  0  0  0  0  0  0  0  0  0  0  0
   54.4127   -6.8615   -4.5642 C   0  0  0  0  0  0  0  0  0  0  0  0
   53.4861   -7.2130   -5.5448 O   0  0  0  0  0  0  0  0  0  0  0  0
   58.1998   -5.3832   -5.7712 H   0  0  0  0  0  0  0  0  0  0  0  0
   56.5533   -7.3512   -6.9138 H   0  0  0  0  0  0  0  0  0  0  0  0
   53.7883   -7.8757   -6.1833 H   0  0  0  0  0  0  0  0  0  0  0  0
   57.4849   -6.6908   -1.1281 C   0  0  0  0  0  0  0  0  0  0  0  0
   57.9425   -7.6298   -0.2299 O   0  0  0  0  0  0  0  0  0  0  0  0
   57.7143   -5.4822   -0.9107 O   0  0  0  0  0  0  0  0  0  0  0  0
   57.5662   -7.7603    0.6912 H   0  0  0  0  0  0  0  0  0  0  0  0
   52.0798   -5.8075   -3.3234 C   0  0  0  0  0  0  0  0  0  0  0  0
   52.4370   -4.7594   -2.7590 O   0  0  0  0  0  0  0  0  0  0  0  0
   51.0912   -5.7155   -4.3464 N   0  0  0  0  0  0  0  0  0  0  0  0
   50.7989   -6.5925   -4.8137 H   0  0  0  0  0  0  0  0  0  0  0  0
   50.5098   -4.4306   -4.7330 C   0  0  0  0  0  0  0  0  0  0  0  0
   49.3137   -4.1070   -3.9793 C   0  0  0  0  0  0  0  0  0  0  0  0
   48.7298   -4.9466   -3.0404 O   0  0  0  0  0  0  0  0  0  0  0  0
   48.6985   -2.9938   -4.1405 O   0  0  0  0  0  0  0  0  0  0  0  0
   47.7154   -5.0575   -2.9660 H   0  0  0  0  0  0  0  0  0  0  0  0
   50.2009   -4.5403   -6.2085 C   0  0  0  0  0  0  0  0  0  0  0  0
   51.1709   -3.9003   -7.0947 C   0  0  0  0  0  0  0  0  0  0  0  0
   52.3461   -4.5373   -7.4261 C   0  0  0  0  0  0  0  0  0  0  0  0
   53.2414   -3.8988   -8.2707 C   0  0  0  0  0  0  0  0  0  0  0  0
   52.9007   -2.6495   -8.7357 C   0  0  0  0  0  0  0  0  0  0  0  0
   51.7496   -2.0297   -8.4091 N   0  0  0  0  0  0  0  0  0  0  0  0
   50.8691   -2.6387   -7.5884 C   0  0  0  0  0  0  0  0  0  0  0  0
   52.9585   -6.3628   -0.5513 C   0  0  0  0  0  0  0  0  0  0  0  0
   52.2648   -7.3478   -1.5205 C   0  0  0  0  0  0  0  0  0  0  0  0
   50.8446   -7.3137   -1.1455 C   0  0  0  0  0  0  0  0  0  0  0  0
 36 37  1  0  0  0
 37 38  1  0  0  0
 37  1  1  0  0  0
  1  2  1  0  0  0
  2  3  1  0  0  0
  3  4  1  0  0  0
  4  5  1  0  0  0
  5  6  1  0  0  0
  6  7  1  0  0  0
  7  8  1  0  0  0
  7  9  1  0  0  0
  9 10  1  0  0  0
  9 11  1  0  0  0
 11 12  1  0  0  0
  5 16  1  0  0  0
 16 17  1  0  0  0
 16 18  2  0  0  0
  1 20  1  0  0  0
 20 21  2  0  0  0
 20 22  1  0  0  0
 22 24  1  0  0  0
 24 29  1  0  0  0
 29 30  1  0  0  0
 30 31  2  0  0  0
 31 32  1  0  0  0
 32 33  2  0  0  0
 33 34  1  0  0  0
 34 35  2  0  0  0
 24 25  1  0  0  0
 25 26  1  0  0  0
 25 27  2  0  0  0
 11  2  1  0  0  0
 35 30  1  0  0  0
  8 13  1  0  0  0
 10 14  1  0  0  0
 12 15  1  0  0  0
 17 19  1  0  0  0
 22 23  1  0  0  0
 26 28  1  0  0  0
M  END
> <minimizedAffinity>
-7.37412

> <CNNscore>
0.4198343158

> <CNNaffinity>
6.1957945824

> <CNN_VS>
2.6012072563

> <CNNaffinity_variance>
0.3242090642

$$$$
[H]OC(=O)[C@@]([H])(N([H])C(=O)[C@@]([H])(N1C([H])([H])C([H])([H])[C@@]([H])(C(=O)O[H])C([H])([H])[C@@]([H])(O[H])[C@]([H])(O[H])[C@@]1([H])O[H])C([H])(C([H])([H])[H])C([H])([H])[H])C([H])([H])c1c([H])nc([H])c([H])c1[H]


 38 39  0  0  0  0  0  0  0  0999 V2000
   55.6321   -7.4390   -4.4678 C   0  0  0  0  0  0  0  0  0  0  0  0
   56.6520   -6.9830   -3.6187 N   0  0  0  0  0  0  0  0  0  0  0  0
   57.9568   -7.2844   -4.0322 C   0  0  0  0  0  0  0  0  0  0  0  0
   58.9182   -7.8164   -3.0160 C   0  0  0  0  0  0  0  0  0  0  0  0
   58.4911   -7.7533   -1.5951 C   0  0  0  0  0  0  0  0  0  0  0  0
   58.9834   -6.4933   -0.9200 C   0  0  0  0  0  0  0  0  0  0  0  0
   57.8263   -5.5192   -0.9213 C   0  0  0  0  0  0  0  0  0  0  0  0
   58.2289   -4.4450   -0.1017 O   0  0  0  0  0  0  0  0  0  0  0  0
   57.6192   -5.0714   -2.3504 C   0  0  0  0  0  0  0  0  0  0  0  0
   57.2761   -3.6988   -2.2408 O   0  0  0  0  0  0  0  0  0  0  0  0
   56.4244   -5.7304   -2.9954 C   0  0  0  0  0  0  0  0  0  0  0  0
   55.8876   -4.7707   -3.8526 O   0  0  0  0  0  0  0  0  0  0  0  0
   57.8603   -4.5011    0.8007 H   0  0  0  0  0  0  0  0  0  0  0  0
   57.9339   -3.2078   -1.6915 H   0  0  0  0  0  0  0  0  0  0  0  0
   56.4747   -4.0311   -4.0678 H   0  0  0  0  0  0  0  0  0  0  0  0
   58.9286   -8.9605   -0.8581 C   0  0  0  0  0  0  0  0  0  0  0  0
   58.1828  -10.1186   -0.8310 O   0  0  0  0  0  0  0  0  0  0  0  0
   60.0135   -8.9241   -0.2397 O   0  0  0  0  0  0  0  0  0  0  0  0
   57.6930  -10.4558   -0.0226 H   0  0  0  0  0  0  0  0  0  0  0  0
   55.5521   -6.7962   -5.8162 C   0  0  0  0  0  0  0  0  0  0  0  0
   54.5670   -7.0281   -6.5376 O   0  0  0  0  0  0  0  0  0  0  0  0
   56.5577   -5.9177   -6.3154 N   0  0  0  0  0  0  0  0  0  0  0  0
   57.3754   -5.7275   -5.7087 H   0  0  0  0  0  0  0  0  0  0  0  0
   56.4431   -5.2972   -7.6347 C   0  0  0  0  0  0  0  0  0  0  0  0
   57.6909   -5.3163   -8.3736 C   0  0  0  0  0  0  0  0  0  0  0  0
   57.7922   -5.1120   -9.7430 O   0  0  0  0  0  0  0  0  0  0  0  0
   58.8127   -5.5344   -7.7924 O   0  0  0  0  0  0  0  0  0  0  0  0
   58.4248   -5.6619  -10.3298 H   0  0  0  0  0  0  0  0  0  0  0  0
   55.9867   -3.8773   -7.3890 C   0  0  0  0  0  0  0  0  0  0  0  0
   54.6342   -3.5717   -7.8505 C   0  0  0  0  0  0  0  0  0  0  0  0
   53.5458   -4.2257   -7.3170 C   0  0  0  0  0  0  0  0  0  0  0  0
   52.2779   -3.9078   -7.7795 C   0  0  0  0  0  0  0  0  0  0  0  0
   52.1776   -2.9450   -8.7573 C   0  0  0  0  0  0  0  0  0  0  0  0
   53.2451   -2.3073   -9.2766 N   0  0  0  0  0  0  0  0  0  0  0  0
   54.4847   -2.6063   -8.8364 C   0  0  0  0  0  0  0  0  0  0  0  0
   54.2177   -8.0916   -2.5302 C   0  0  0  0  0  0  0  0  0  0  0  0
   54.2433   -7.5270   -3.9694 C   0  0  0  0  0  0  0  0  0  0  0  0
   53.3646   -6.3500   -3.9320 C   0  0  0  0  0  0  0  0  0  0  0  0
 36 37  1  0  0  0
 37 38  1  0  0  0
 37  1  1  0  0  0
  1  2  1  0  0  0
  2  3  1  0  0  0
  3  4  1  0  0  0
  4  5  1  0  0  0
  5  6  1  0  0  0
  6  7  1  0  0  0
  7  8  1  0  0  0
  7  9  1  0  0  0
  9 10  1  0  0  0
  9 11  1  0  0  0
 11 12  1  0  0  0
  5 16  1  0  0  0
 16 17  1  0  0  0
 16 18  2  0  0  0
  1 20  1  0  0  0
 20 21  2  0  0  0
 20 22  1  0  0  0
 22 24  1  0  0  0
 24 29  1  0  0  0
 29 30  1  0  0  0
 30 31  2  0  0  0
 31 32  1  0  0  0
 32 33  2  0  0  0
 33 34  1  0  0  0
 34 35  2  0  0  0
 24 25  1  0  0  0
 25 26  1  0  0  0
 25 27  2  0  0  0
 11  2  1  0  0  0
 35 30  1  0  0  0
  8 13  1  0  0  0
 10 14  1  0  0  0
 12 15  1  0  0  0
 17 19  1  0  0  0
 22 23  1  0  0  0
 26 28  1  0  0  0
M  END
> <minimizedAffinity>
-7.61354

> <CNNscore>
0.4169289470

> <CNNaffinity>
5.6578855515

> <CNN_VS>
2.3589363098

> <CNNaffinity_variance>
0.1438784152

$$$$
[H]OC(=O)[C@@]([H])(N([H])C(=O)[C@@]([H])(N1C([H])([H])C([H])([H])[C@@]([H])(C(=O)O[H])C([H])([H])[C@@]([H])(O[H])[C@]([H])(O[H])[C@@]1([H])O[H])C([H])(C([H])([H])[H])C([H])([H])[H])C([H])([H])c1c([H])nc([H])c([H])c1[H]


 38 39  0  0  0  0  0  0  0  0999 V2000
   55.9521   -5.1637   -5.4422 C   0  0  0  0  0  0  0  0  0  0  0  0
   55.1682   -5.4311   -4.3094 N   0  0  0  0  0  0  0  0  0  0  0  0
   54.6363   -6.7259   -4.2397 C   0  0  0  0  0  0  0  0  0  0  0  0
   53.1972   -6.8823   -3.8592 C   0  0  0  0  0  0  0  0  0  0  0  0
   52.5068   -5.6721   -3.3454 C   0  0  0  0  0  0  0  0  0  0  0  0
   52.5580   -5.5990   -1.8362 C   0  0  0  0  0  0  0  0  0  0  0  0
   53.6817   -4.6494   -1.4851 C   0  0  0  0  0  0  0  0  0  0  0  0
   53.5734   -4.4239   -0.0976 O   0  0  0  0  0  0  0  0  0  0  0  0
   54.9796   -5.3445   -1.8285 C   0  0  0  0  0  0  0  0  0  0  0  0
   55.8698   -4.9542   -0.7945 O   0  0  0  0  0  0  0  0  0  0  0  0
   55.5959   -4.8218   -3.1032 C   0  0  0  0  0  0  0  0  0  0  0  0
   56.9743   -4.8867   -2.9042 O   0  0  0  0  0  0  0  0  0  0  0  0
   53.1259   -3.5821    0.1134 H   0  0  0  0  0  0  0  0  0  0  0  0
   55.4775   -5.1182    0.0969 H   0  0  0  0  0  0  0  0  0  0  0  0
   57.2622   -5.4538   -2.1737 H   0  0  0  0  0  0  0  0  0  0  0  0
   51.1113   -5.6118   -3.8365 C   0  0  0  0  0  0  0  0  0  0  0  0
   50.2300   -4.6319   -3.4349 O   0  0  0  0  0  0  0  0  0  0  0  0
   50.7226   -6.4824   -4.6437 O   0  0  0  0  0  0  0  0  0  0  0  0
   49.4453   -4.7917   -2.8304 H   0  0  0  0  0  0  0  0  0  0  0  0
   55.2629   -4.4827   -6.5821 C   0  0  0  0  0  0  0  0  0  0  0  0
   55.5251   -3.2915   -6.8207 O   0  0  0  0  0  0  0  0  0  0  0  0
   54.3159   -5.1422   -7.4190 N   0  0  0  0  0  0  0  0  0  0  0  0
   54.1029   -6.1352   -7.2156 H   0  0  0  0  0  0  0  0  0  0  0  0
   53.6681   -4.4496   -8.5323 C   0  0  0  0  0  0  0  0  0  0  0  0
   54.5737   -4.1918   -9.6353 C   0  0  0  0  0  0  0  0  0  0  0  0
   54.3232   -3.2867  -10.6578 O   0  0  0  0  0  0  0  0  0  0  0  0
   55.6945   -4.8051   -9.7420 O   0  0  0  0  0  0  0  0  0  0  0  0
   54.5549   -3.4903  -11.6334 H   0  0  0  0  0  0  0  0  0  0  0  0
   53.1336   -3.1554   -7.9632 C   0  0  0  0  0  0  0  0  0  0  0  0
   51.7169   -3.1734   -7.6049 C   0  0  0  0  0  0  0  0  0  0  0  0
   51.1003   -4.3492   -7.2384 C   0  0  0  0  0  0  0  0  0  0  0  0
   49.7549   -4.3265   -6.9042 C   0  0  0  0  0  0  0  0  0  0  0  0
   49.1038   -3.1156   -6.9580 C   0  0  0  0  0  0  0  0  0  0  0  0
   49.7108   -1.9673   -7.3170 N   0  0  0  0  0  0  0  0  0  0  0  0
   51.0194   -1.9742   -7.6449 C   0  0  0  0  0  0  0  0  0  0  0  0
   57.5825   -5.6971   -7.2415 C   0  0  0  0  0  0  0  0  0  0  0  0
   56.7743   -6.2372   -6.0390 C   0  0  0  0  0  0  0  0  0  0  0  0
   57.7448   -6.9965   -5.2387 C   0  0  0  0  0  0  0  0  0  0  0  0
 36 37  1  0  0  0
 37 38  1  0  0  0
 37  1  1  0  0  0
  1  2  1  0  0  0
  2  3  1  0  0  0
  3  4  1  0  0  0
  4  5  1  0  0  0
  5  6  1  0  0  0
  6  7  1  0  0  0
  7  8  1  0  0  0
  7  9  1  0  0  0
  9 10  1  0  0  0
  9 11  1  0  0  0
 11 12  1  0  0  0
  5 16  1  0  0  0
 16 17  1  0  0  0
 16 18  2  0  0  0
  1 20  1  0  0  0
 20 21  2  0  0  0
 20 22  1  0  0  0
 22 24  1  0  0  0
 24 29  1  0  0  0
 29 30  1  0  0  0
 30 31  2  0  0  0
 31 32  1  0  0  0
 32 33  2  0  0  0
 33 34  1  0  0  0
 34 35  2  0  0  0
 24 25  1  0  0  0
 25 26  1  0  0  0
 25 27  2  0  0  0
 11  2  1  0  0  0
 35 30  1  0  0  0
  8 13  1  0  0  0
 10 14  1  0  0  0
 12 15  1  0  0  0
 17 19  1  0  0  0
 22 23  1  0  0  0
 26 28  1  0  0  0
M  END
> <minimizedAffinity>
-5.75593

> <CNNscore>
0.2789188921

> <CNNaffinity>
5.9884734154

> <CNN_VS>
1.6702983379

> <CNNaffinity_variance>
0.1975494921

$$$$
[H]OC(=O)[C@@]([H])(N([H])C(=O)[C@@]([H])(N1C([H])([H])C([H])([H])[C@@]([H])(C(=O)O[H])C([H])([H])[C@@]([H])(O[H])[C@]([H])(O[H])[C@@]1([H])O[H])C([H])(C([H])([H])[H])C([H])([H])[H])C([H])([H])c1c([H])nc([H])c([H])c1[H]


 38 39  0  0  0  0  0  0  0  0999 V2000
   52.4005   -6.2787   -5.6829 C   0  0  0  0  0  0  0  0  0  0  0  0
   52.3871   -6.2843   -4.2797 N   0  0  0  0  0  0  0  0  0  0  0  0
   53.3189   -5.4352   -3.6672 C   0  0  0  0  0  0  0  0  0  0  0  0
   54.1194   -5.9692   -2.5209 C   0  0  0  0  0  0  0  0  0  0  0  0
   53.6934   -7.2767   -1.9603 C   0  0  0  0  0  0  0  0  0  0  0  0
   52.7490   -7.1021   -0.7927 C   0  0  0  0  0  0  0  0  0  0  0  0
   51.3499   -7.3010   -1.3322 C   0  0  0  0  0  0  0  0  0  0  0  0
   50.5077   -7.3534   -0.2028 O   0  0  0  0  0  0  0  0  0  0  0  0
   51.0301   -6.1052   -2.2002 C   0  0  0  0  0  0  0  0  0  0  0  0
   49.6573   -5.8478   -1.9492 O   0  0  0  0  0  0  0  0  0  0  0  0
   51.1132   -6.4215   -3.6736 C   0  0  0  0  0  0  0  0  0  0  0  0
   50.1227   -5.6476   -4.2769 O   0  0  0  0  0  0  0  0  0  0  0  0
   50.2748   -8.2670    0.0513 H   0  0  0  0  0  0  0  0  0  0  0  0
   49.4769   -5.7794   -0.9805 H   0  0  0  0  0  0  0  0  0  0  0  0
   49.7823   -4.9167   -3.7403 H   0  0  0  0  0  0  0  0  0  0  0  0
   54.8667   -8.0961   -1.5808 C   0  0  0  0  0  0  0  0  0  0  0  0
   54.9862   -8.6826   -0.3399 O   0  0  0  0  0  0  0  0  0  0  0  0
   55.7791   -8.2593   -2.4184 O   0  0  0  0  0  0  0  0  0  0  0  0
   55.6373   -8.3866    0.3639 H   0  0  0  0  0  0  0  0  0  0  0  0
   53.4851   -5.4805   -6.3344 C   0  0  0  0  0  0  0  0  0  0  0  0
   53.2605   -4.2982   -6.6449 O   0  0  0  0  0  0  0  0  0  0  0  0
   54.7774   -6.0139   -6.6133 N   0  0  0  0  0  0  0  0  0  0  0  0
   54.9584   -6.9994   -6.3509 H   0  0  0  0  0  0  0  0  0  0  0  0
   55.8189   -5.2023   -7.2420 C   0  0  0  0  0  0  0  0  0  0  0  0
   56.2379   -4.0881   -6.4136 C   0  0  0  0  0  0  0  0  0  0  0  0
   56.4624   -4.1711   -5.0461 O   0  0  0  0  0  0  0  0  0  0  0  0
   56.4286   -2.9195   -6.9055 O   0  0  0  0  0  0  0  0  0  0  0  0
   56.1687   -3.4334   -4.4008 H   0  0  0  0  0  0  0  0  0  0  0  0
   55.2337   -4.7111   -8.5462 C   0  0  0  0  0  0  0  0  0  0  0  0
   56.1712   -4.6585   -9.6661 C   0  0  0  0  0  0  0  0  0  0  0  0
   55.8170   -4.0507  -10.8502 C   0  0  0  0  0  0  0  0  0  0  0  0
   56.7338   -4.0197  -11.8899 C   0  0  0  0  0  0  0  0  0  0  0  0
   57.9607   -4.6049  -11.6772 C   0  0  0  0  0  0  0  0  0  0  0  0
   58.3034   -5.1984  -10.5170 N   0  0  0  0  0  0  0  0  0  0  0  0
   57.4217   -5.2363   -9.4967 C   0  0  0  0  0  0  0  0  0  0  0  0
   51.2275   -4.5603   -7.0435 C   0  0  0  0  0  0  0  0  0  0  0  0
   51.1611   -5.9781   -6.4301 C   0  0  0  0  0  0  0  0  0  0  0  0
   50.6930   -6.8433   -7.5214 C   0  0  0  0  0  0  0  0  0  0  0  0
 36 37  1  0  0  0
 37 38  1  0  0  0
 37  1  1  0  0  0
  1  2  1  0  0  0
  2  3  1  0  0  0
  3  4  1  0  0  0
  4  5  1  0  0  0
  5  6  1  0  0  0
  6  7  1  0  0  0
  7  8  1  0  0  0
  7  9  1  0  0  0
  9 10  1  0  0  0
  9 11  1  0  0  0
 11 12  1  0  0  0
  5 16  1  0  0  0
 16 17  1  0  0  0
 16 18  2  0  0  0
  1 20  1  0  0  0
 20 21  2  0  0  0
 20 22  1  0  0  0
 22 24  1  0  0  0
 24 29  1  0  0  0
 29 30  1  0  0  0
 30 31  2  0  0  0
 31 32  1  0  0  0
 32 33  2  0  0  0
 33 34  1  0  0  0
 34 35  2  0  0  0
 24 25  1  0  0  0
 25 26  1  0  0  0
 25 27  2  0  0  0
 11  2  1  0  0  0
 35 30  1  0  0  0
  8 13  1  0  0  0
 10 14  1  0  0  0
 12 15  1  0  0  0
 17 19  1  0  0  0
 22 23  1  0  0  0
 26 28  1  0  0  0
M  END
> <minimizedAffinity>
-7.66127

> <CNNscore>
0.1533854008

> <CNNaffinity>
5.8848848343

> <CNN_VS>
0.9026554227

> <CNNaffinity_variance>
0.0688451082

$$$$
[H]OC(=O)[C@@]([H])(N([H])C(=O)[C@@]([H])(N1C([H])([H])C([H])([H])[C@@]([H])(C(=O)O[H])C([H])([H])[C@@]([H])(O[H])[C@]([H])(O[H])[C@@]1([H])O[H])C([H])(C([H])([H])[H])C([H])([H])[H])C([H])([H])c1c([H])nc([H])c([H])c1[H]


 38 39  0  0  0  0  0  0  0  0999 V2000
   54.8392   -6.2757   -4.1832 C   0  0  0  0  0  0  0  0  0  0  0  0
   55.7138   -6.5678   -3.1254 N   0  0  0  0  0  0  0  0  0  0  0  0
   55.3467   -6.0401   -1.8799 C   0  0  0  0  0  0  0  0  0  0  0  0
   56.4008   -5.3721   -1.0537 C   0  0  0  0  0  0  0  0  0  0  0  0
   57.8062   -5.5352   -1.5049 C   0  0  0  0  0  0  0  0  0  0  0  0
   58.4784   -6.7058   -0.8241 C   0  0  0  0  0  0  0  0  0  0  0  0
   58.4259   -7.8628   -1.7969 C   0  0  0  0  0  0  0  0  0  0  0  0
   59.2423   -8.8686   -1.2405 O   0  0  0  0  0  0  0  0  0  0  0  0
   56.9846   -8.3110   -1.8827 C   0  0  0  0  0  0  0  0  0  0  0  0
   57.0633   -9.7240   -1.9890 O   0  0  0  0  0  0  0  0  0  0  0  0
   56.3112   -7.8529   -3.1534 C   0  0  0  0  0  0  0  0  0  0  0  0
   55.4235   -8.8730   -3.4929 O   0  0  0  0  0  0  0  0  0  0  0  0
   60.1332   -8.8939   -1.6393 H   0  0  0  0  0  0  0  0  0  0  0  0
   57.6261  -10.1063   -1.2730 H   0  0  0  0  0  0  0  0  0  0  0  0
   55.2165   -9.4972   -2.7819 H   0  0  0  0  0  0  0  0  0  0  0  0
   58.5743   -4.2858   -1.3020 C   0  0  0  0  0  0  0  0  0  0  0  0
   59.7431   -4.2488   -0.5736 O   0  0  0  0  0  0  0  0  0  0  0  0
   58.1440   -3.2292   -1.8110 O   0  0  0  0  0  0  0  0  0  0  0  0
   59.8325   -3.8191    0.3288 H   0  0  0  0  0  0  0  0  0  0  0  0
   55.3688   -5.3764   -5.2549 C   0  0  0  0  0  0  0  0  0  0  0  0
   56.0610   -4.3960   -4.9322 O   0  0  0  0  0  0  0  0  0  0  0  0
   55.1203   -5.5954   -6.6415 N   0  0  0  0  0  0  0  0  0  0  0  0
   54.5437   -6.4149   -6.9038 H   0  0  0  0  0  0  0  0  0  0  0  0
   55.6624   -4.7022   -7.6647 C   0  0  0  0  0  0  0  0  0  0  0  0
   54.6530   -3.8392   -8.2475 C   0  0  0  0  0  0  0  0  0  0  0  0
   53.3967   -4.2685   -8.6535 O   0  0  0  0  0  0  0  0  0  0  0  0
   54.8648   -2.5887   -8.4349 O   0  0  0  0  0  0  0  0  0  0  0  0
   52.9594   -3.9328   -9.5154 H   0  0  0  0  0  0  0  0  0  0  0  0
   56.2753   -5.5976   -8.7169 C   0  0  0  0  0  0  0  0  0  0  0  0
   56.7952   -4.9055   -9.8944 C   0  0  0  0  0  0  0  0  0  0  0  0
   55.9375   -4.3464  -10.8157 C   0  0  0  0  0  0  0  0  0  0  0  0
   56.4682   -3.6967  -11.9197 C   0  0  0  0  0  0  0  0  0  0  0  0
   57.8384   -3.6465  -12.0336 C   0  0  0  0  0  0  0  0  0  0  0  0
   58.6741   -4.1946  -11.1297 N   0  0  0  0  0  0  0  0  0  0  0  0
   58.1722   -4.8299  -10.0507 C   0  0  0  0  0  0  0  0  0  0  0  0
   52.6508   -5.6854   -5.2043 C   0  0  0  0  0  0  0  0  0  0  0  0
   53.4655   -5.8114   -3.8963 C   0  0  0  0  0  0  0  0  0  0  0  0
   52.5870   -6.5379   -2.9694 C   0  0  0  0  0  0  0  0  0  0  0  0
 36 37  1  0  0  0
 37 38  1  0  0  0
 37  1  1  0  0  0
  1  2  1  0  0  0
  2  3  1  0  0  0
  3  4  1  0  0  0
  4  5  1  0  0  0
  5  6  1  0  0  0
  6  7  1  0  0  0
  7  8  1  0  0  0
  7  9  1  0  0  0
  9 10  1  0  0  0
  9 11  1  0  0  0
 11 12  1  0  0  0
  5 16  1  0  0  0
 16 17  1  0  0  0
 16 18  2  0  0  0
  1 20  1  0  0  0
 20 21  2  0  0  0
 20 22  1  0  0  0
 22 24  1  0  0  0
 24 29  1  0  0  0
 29 30  1  0  0  0
 30 31  2  0  0  0
 31 32  1  0  0  0
 32 33  2  0  0  0
 33 34  1  0  0  0
 34 35  2  0  0  0
 24 25  1  0  0  0
 25 26  1  0  0  0
 25 27  2  0  0  0
 11  2  1  0  0  0
 35 30  1  0  0  0
  8 13  1  0  0  0
 10 14  1  0  0  0
 12 15  1  0  0  0
 17 19  1  0  0  0
 22 23  1  0  0  0
 26 28  1  0  0  0
M  END
> <minimizedAffinity>
-6.34174

> <CNNscore>
0.1389514953

> <CNNaffinity>
5.3920569420

> <CNN_VS>
0.7492343783

> <CNNaffinity_variance>
0.1482403278

$$$$
[H]OC(=O)[C@@]([H])(N([H])C(=O)[C@@]([H])(N1C([H])([H])C([H])([H])[C@@]([H])(C(=O)O[H])C([H])([H])[C@@]([H])(O[H])[C@]([H])(O[H])[C@@]1([H])O[H])C([H])(C([H])([H])[H])C([H])([H])[H])C([H])([H])c1c([H])nc([H])c([H])c1[H]


 38 39  0  0  0  0  0  0  0  0999 V2000
   51.7029   -5.5567   -6.8028 C   0  0  0  0  0  0  0  0  0  0  0  0
   53.1058   -5.5652   -6.8329 N   0  0  0  0  0  0  0  0  0  0  0  0
   53.7042   -6.8064   -6.5768 C   0  0  0  0  0  0  0  0  0  0  0  0
   54.8652   -6.8534   -5.6334 C   0  0  0  0  0  0  0  0  0  0  0  0
   55.4515   -5.5499   -5.2305 C   0  0  0  0  0  0  0  0  0  0  0  0
   56.6110   -5.1610   -6.1194 C   0  0  0  0  0  0  0  0  0  0  0  0
   56.0697   -4.1789   -7.1345 C   0  0  0  0  0  0  0  0  0  0  0  0
   57.1963   -3.6640   -7.8078 O   0  0  0  0  0  0  0  0  0  0  0  0
   55.1750   -4.9539   -8.0750 C   0  0  0  0  0  0  0  0  0  0  0  0
   55.4144   -4.3702   -9.3462 O   0  0  0  0  0  0  0  0  0  0  0  0
   53.7090   -4.7229   -7.8002 C   0  0  0  0  0  0  0  0  0  0  0  0
   53.0850   -4.7689   -9.0462 O   0  0  0  0  0  0  0  0  0  0  0  0
   57.4687   -2.7888   -7.4714 H   0  0  0  0  0  0  0  0  0  0  0  0
   56.3805   -4.3354   -9.5483 H   0  0  0  0  0  0  0  0  0  0  0  0
   53.6044   -5.1742   -9.7561 H   0  0  0  0  0  0  0  0  0  0  0  0
   55.8537   -5.5697   -3.8057 C   0  0  0  0  0  0  0  0  0  0  0  0
   56.0517   -4.4159   -3.0793 O   0  0  0  0  0  0  0  0  0  0  0  0
   56.0183   -6.6740   -3.2454 O   0  0  0  0  0  0  0  0  0  0  0  0
   56.9498   -4.0878   -2.7747 H   0  0  0  0  0  0  0  0  0  0  0  0
   51.0677   -5.0535   -5.5454 C   0  0  0  0  0  0  0  0  0  0  0  0
   50.7091   -3.8651   -5.4844 O   0  0  0  0  0  0  0  0  0  0  0  0
   50.8465   -5.8806   -4.4056 N   0  0  0  0  0  0  0  0  0  0  0  0
   51.1465   -6.8703   -4.4633 H   0  0  0  0  0  0  0  0  0  0  0  0
   50.2127   -5.3591   -3.1952 C   0  0  0  0  0  0  0  0  0  0  0  0
   49.1306   -4.4370   -3.4817 C   0  0  0  0  0  0  0  0  0  0  0  0
   49.2985   -3.0751   -3.6923 O   0  0  0  0  0  0  0  0  0  0  0  0
   47.9132   -4.8321   -3.5563 O   0  0  0  0  0  0  0  0  0  0  0  0
   48.6489   -2.3817   -3.3126 H   0  0  0  0  0  0  0  0  0  0  0  0
   51.3094   -4.6730   -2.4134 C   0  0  0  0  0  0  0  0  0  0  0  0
   52.1346   -5.5584   -1.5944 C   0  0  0  0  0  0  0  0  0  0  0  0
   51.7199   -6.8407   -1.3101 C   0  0  0  0  0  0  0  0  0  0  0  0
   52.5306   -7.6517   -0.5306 C   0  0  0  0  0  0  0  0  0  0  0  0
   53.7183   -7.1231   -0.0799 C   0  0  0  0  0  0  0  0  0  0  0  0
   54.1205   -5.8680   -0.3605 N   0  0  0  0  0  0  0  0  0  0  0  0
   53.3421   -5.0675   -1.1176 C   0  0  0  0  0  0  0  0  0  0  0  0
   49.4502   -6.4425   -7.3698 C   0  0  0  0  0  0  0  0  0  0  0  0
   50.9506   -6.7692   -7.1886 C   0  0  0  0  0  0  0  0  0  0  0  0
   51.3151   -7.5541   -8.3760 C   0  0  0  0  0  0  0  0  0  0  0  0
 36 37  1  0  0  0
 37 38  1  0  0  0
 37  1  1  0  0  0
  1  2  1  0  0  0
  2  3  1  0  0  0
  3  4  1  0  0  0
  4  5  1  0  0  0
  5  6  1  0  0  0
  6  7  1  0  0  0
  7  8  1  0  0  0
  7  9  1  0  0  0
  9 10  1  0  0  0
  9 11  1  0  0  0
 11 12  1  0  0  0
  5 16  1  0  0  0
 16 17  1  0  0  0
 16 18  2  0  0  0
  1 20  1  0  0  0
 20 21  2  0  0  0
 20 22  1  0  0  0
 22 24  1  0  0  0
 24 29  1  0  0  0
 29 30  1  0  0  0
 30 31  2  0  0  0
 31 32  1  0  0  0
 32 33  2  0  0  0
 33 34  1  0  0  0
 34 35  2  0  0  0
 24 25  1  0  0  0
 25 26  1  0  0  0
 25 27  2  0  0  0
 11  2  1  0  0  0
 35 30  1  0  0  0
  8 13  1  0  0  0
 10 14  1  0  0  0
 12 15  1  0  0  0
 17 19  1  0  0  0
 22 23  1  0  0  0
 26 28  1  0  0  0
M  END
> <minimizedAffinity>
-6.43869

> <CNNscore>
0.1386440843

> <CNNaffinity>
5.2675352097

> <CNN_VS>
0.7303125858

> <CNNaffinity_variance>
0.3524959385

$$$$
[H]OC(=O)[C@@]([H])(N([H])C(=O)[C@@]([H])(N1C([H])([H])C([H])([H])[C@@]([H])(C(=O)O[H])C([H])([H])[C@@]([H])(O[H])[C@]([H])(O[H])[C@@]1([H])O[H])C([H])(C([H])([H])[H])C([H])([H])[H])C([H])([H])c1c([H])nc([H])c([H])c1[H]


 38 39  0  0  0  0  0  0  0  0999 V2000
   52.3306   -6.0127   -3.4155 C   0  0  0  0  0  0  0  0  0  0  0  0
   51.2794   -5.4158   -4.1282 N   0  0  0  0  0  0  0  0  0  0  0  0
   50.9216   -6.0590   -5.3209 C   0  0  0  0  0  0  0  0  0  0  0  0
   50.7022   -5.2205   -6.5411 C   0  0  0  0  0  0  0  0  0  0  0  0
   50.6392   -3.7507   -6.3390 C   0  0  0  0  0  0  0  0  0  0  0  0
   49.2165   -3.2731   -6.1559 C   0  0  0  0  0  0  0  0  0  0  0  0
   49.0012   -3.1101   -4.6676 C   0  0  0  0  0  0  0  0  0  0  0  0
   47.7574   -2.4609   -4.5293 O   0  0  0  0  0  0  0  0  0  0  0  0
   48.9667   -4.4964   -4.0654 C   0  0  0  0  0  0  0  0  0  0  0  0
   47.9760   -4.4134   -3.0527 O   0  0  0  0  0  0  0  0  0  0  0  0
   50.2456   -4.8454   -3.3440 C   0  0  0  0  0  0  0  0  0  0  0  0
   49.8597   -5.6415   -2.2663 O   0  0  0  0  0  0  0  0  0  0  0  0
   47.8487   -1.5015   -4.3722 H   0  0  0  0  0  0  0  0  0  0  0  0
   47.1327   -4.0400   -3.4062 H   0  0  0  0  0  0  0  0  0  0  0  0
   48.9695   -6.0182   -2.3260 H   0  0  0  0  0  0  0  0  0  0  0  0
   51.3039   -3.0357   -7.4522 C   0  0  0  0  0  0  0  0  0  0  0  0
   50.8486   -1.8253   -7.9274 O   0  0  0  0  0  0  0  0  0  0  0  0
   52.3135   -3.5515   -7.9770 O   0  0  0  0  0  0  0  0  0  0  0  0
   50.4061   -1.6993   -8.8192 H   0  0  0  0  0  0  0  0  0  0  0  0
   53.7007   -5.8553   -3.9950 C   0  0  0  0  0  0  0  0  0  0  0  0
   54.5162   -5.1126   -3.4224 O   0  0  0  0  0  0  0  0  0  0  0  0
   54.1215   -6.5270   -5.1799 N   0  0  0  0  0  0  0  0  0  0  0  0
   53.4375   -7.1454   -5.6516 H   0  0  0  0  0  0  0  0  0  0  0  0
   55.4726   -6.3590   -5.7139 C   0  0  0  0  0  0  0  0  0  0  0  0
   56.4989   -6.5126   -4.7008 C   0  0  0  0  0  0  0  0  0  0  0  0
   57.1982   -5.4581   -4.1296 O   0  0  0  0  0  0  0  0  0  0  0  0
   56.8391   -7.6670   -4.2586 O   0  0  0  0  0  0  0  0  0  0  0  0
   58.2016   -5.5118   -3.9367 H   0  0  0  0  0  0  0  0  0  0  0  0
   55.5140   -4.9722   -6.3136 C   0  0  0  0  0  0  0  0  0  0  0  0
   56.1156   -4.8887   -7.6428 C   0  0  0  0  0  0  0  0  0  0  0  0
   57.4303   -5.2475   -7.8421 C   0  0  0  0  0  0  0  0  0  0  0  0
   57.9657   -5.1559   -9.1179 C   0  0  0  0  0  0  0  0  0  0  0  0
   57.1430   -4.7064  -10.1249 C   0  0  0  0  0  0  0  0  0  0  0  0
   55.8571   -4.3565   -9.9258 N   0  0  0  0  0  0  0  0  0  0  0  0
   55.3227   -4.4404   -8.6899 C   0  0  0  0  0  0  0  0  0  0  0  0
   53.6074   -7.9721   -2.5723 C   0  0  0  0  0  0  0  0  0  0  0  0
   52.2228   -7.4236   -2.9881 C   0  0  0  0  0  0  0  0  0  0  0  0
   51.3124   -7.8322   -1.9098 C   0  0  0  0  0  0  0  0  0  0  0  0
 36 37  1  0  0  0
 37 38  1  0  0  0
 37  1  1  0  0  0
  1  2  1  0  0  0
  2  3  1  0  0  0
  3  4  1  0  0  0
  4  5  1  0  0  0
  5  6  1  0  0  0
  6  7  1  0  0  0
  7  8  1  0  0  0
  7  9  1  0  0  0
  9 10  1  0  0  0
  9 11  1  0  0  0
 11 12  1  0  0  0
  5 16  1  0  0  0
 16 17  1  0  0  0
 16 18  2  0  0  0
  1 20  1  0  0  0
 20 21  2  0  0  0
 20 22  1  0  0  0
 22 24  1  0  0  0
 24 29  1  0  0  0
 29 30  1  0  0  0
 30 31  2  0  0  0
 31 32  1  0  0  0
 32 33  2  0  0  0
 33 34  1  0  0  0
 34 35  2  0  0  0
 24 25  1  0  0  0
 25 26  1  0  0  0
 25 27  2  0  0  0
 11  2  1  0  0  0
 35 30  1  0  0  0
  8 13  1  0  0  0
 10 14  1  0  0  0
 12 15  1  0  0  0
 17 19  1  0  0  0
 22 23  1  0  0  0
 26 28  1  0  0  0
M  END
> <minimizedAffinity>
-9.51175

> <CNNscore>
0.1263550818

> <CNNaffinity>
6.0421600342

> <CNN_VS>
0.7634575963

> <CNNaffinity_variance>
0.1189806312

$$$$
[H]OC(=O)[C@@]([H])(N([H])C(=O)[C@@]([H])(N1C([H])([H])C([H])([H])[C@@]([H])(C(=O)O[H])C([H])([H])[C@@]([H])(O[H])[C@]([H])(O[H])[C@@]1([H])O[H])C([H])(C([H])([H])[H])C([H])([H])[H])C([H])([H])c1c([H])nc([H])c([H])c1[H]


 38 39  0  0  0  0  0  0  0  0999 V2000
   54.5100   -6.7549   -3.3402 C   0  0  0  0  0  0  0  0  0  0  0  0
   55.6280   -6.9560   -2.5163 N   0  0  0  0  0  0  0  0  0  0  0  0
   55.4778   -6.5356   -1.1877 C   0  0  0  0  0  0  0  0  0  0  0  0
   56.5889   -5.7526   -0.5613 C   0  0  0  0  0  0  0  0  0  0  0  0
   57.8686   -5.6910   -1.3122 C   0  0  0  0  0  0  0  0  0  0  0  0
   58.8259   -6.7757   -0.8733 C   0  0  0  0  0  0  0  0  0  0  0  0
   58.7156   -7.8900   -1.8902 C   0  0  0  0  0  0  0  0  0  0  0  0
   59.7624   -8.7860   -1.5919 O   0  0  0  0  0  0  0  0  0  0  0  0
   57.3646   -8.5407   -1.6972 C   0  0  0  0  0  0  0  0  0  0  0  0
   57.6071   -9.9218   -1.9153 O   0  0  0  0  0  0  0  0  0  0  0  0
   56.3717   -8.1378   -2.7600 C   0  0  0  0  0  0  0  0  0  0  0  0
   55.5762   -9.2631   -2.9721 O   0  0  0  0  0  0  0  0  0  0  0  0
   60.5382   -8.6655   -2.1724 H   0  0  0  0  0  0  0  0  0  0  0  0
   58.3605  -10.2447   -1.3643 H   0  0  0  0  0  0  0  0  0  0  0  0
   55.6175   -9.9376   -2.2782 H   0  0  0  0  0  0  0  0  0  0  0  0
   58.4874   -4.3513   -1.1920 C   0  0  0  0  0  0  0  0  0  0  0  0
   57.9428   -3.2318   -1.7820 O   0  0  0  0  0  0  0  0  0  0  0  0
   59.5412   -4.2357   -0.5310 O   0  0  0  0  0  0  0  0  0  0  0  0
   58.3436   -2.7576   -2.5703 H   0  0  0  0  0  0  0  0  0  0  0  0
   54.7721   -6.6847   -4.8114 C   0  0  0  0  0  0  0  0  0  0  0  0
   54.9033   -7.7416   -5.4519 O   0  0  0  0  0  0  0  0  0  0  0  0
   54.8736   -5.4526   -5.5213 N   0  0  0  0  0  0  0  0  0  0  0  0
   54.7620   -4.5755   -4.9819 H   0  0  0  0  0  0  0  0  0  0  0  0
   55.1201   -5.4199   -6.9624 C   0  0  0  0  0  0  0  0  0  0  0  0
   56.4481   -4.9401   -7.2934 C   0  0  0  0  0  0  0  0  0  0  0  0
   57.5684   -5.7527   -7.4033 O   0  0  0  0  0  0  0  0  0  0  0  0
   56.6797   -3.6974   -7.5071 O   0  0  0  0  0  0  0  0  0  0  0  0
   58.4838   -5.4685   -7.0452 H   0  0  0  0  0  0  0  0  0  0  0  0
   54.0611   -4.5127   -7.5456 C   0  0  0  0  0  0  0  0  0  0  0  0
   52.6823   -4.9205   -7.2843 C   0  0  0  0  0  0  0  0  0  0  0  0
   51.7501   -4.0052   -6.8481 C   0  0  0  0  0  0  0  0  0  0  0  0
   50.4513   -4.4295   -6.6119 C   0  0  0  0  0  0  0  0  0  0  0  0
   50.1637   -5.7573   -6.8296 C   0  0  0  0  0  0  0  0  0  0  0  0
   51.0787   -6.6496   -7.2566 N   0  0  0  0  0  0  0  0  0  0  0  0
   52.3462   -6.2513   -7.4904 C   0  0  0  0  0  0  0  0  0  0  0  0
   52.1698   -5.9724   -3.6431 C   0  0  0  0  0  0  0  0  0  0  0  0
   53.5590   -5.6645   -3.0380 C   0  0  0  0  0  0  0  0  0  0  0  0
   53.2873   -5.2429   -1.6569 C   0  0  0  0  0  0  0  0  0  0  0  0
 36 37  1  0  0  0
 37 38  1  0  0  0
 37  1  1  0  0  0
  1  2  1  0  0  0
  2  3  1  0  0  0
  3  4  1  0  0  0
  4  5  1  0  0  0
  5  6  1  0  0  0
  6  7  1  0  0  0
  7  8  1  0  0  0
  7  9  1  0  0  0
  9 10  1  0  0  0
  9 11  1  0  0  0
 11 12  1  0  0  0
  5 16  1  0  0  0
 16 17  1  0  0  0
 16 18  2  0  0  0
  1 20  1  0  0  0
 20 21  2  0  0  0
 20 22  1  0  0  0
 22 24  1  0  0  0
 24 29  1  0  0  0
 29 30  1  0  0  0
 30 31  2  0  0  0
 31 32  1  0  0  0
 32 33  2  0  0  0
 33 34  1  0  0  0
 34 35  2  0  0  0
 24 25  1  0  0  0
 25 26  1  0  0  0
 25 27  2  0  0  0
 11  2  1  0  0  0
 35 30  1  0  0  0
  8 13  1  0  0  0
 10 14  1  0  0  0
 12 15  1  0  0  0
 17 19  1  0  0  0
 22 23  1  0  0  0
 26 28  1  0  0  0
M  END
> <minimizedAffinity>
-7.96414

> <CNNscore>
0.1249791831

> <CNNaffinity>
5.1811943054

> <CNN_VS>
0.6475414038

> <CNNaffinity_variance>
0.2739260197

$$$$
[H]OC(=O)[C@@]([H])(N([H])C(=O)[C@@]([H])(N1C([H])([H])C([H])([H])[C@@]([H])(C(=O)O[H])C([H])([H])[C@@]([H])(O[H])[C@]([H])(O[H])[C@@]1([H])O[H])C([H])(C([H])([H])[H])C([H])([H])[H])C([H])([H])c1c([H])nc([H])c([H])c1[H]


 38 39  0  0  0  0  0  0  0  0999 V2000
   50.6871   -5.5250   -4.4512 C   0  0  0  0  0  0  0  0  0  0  0  0
   51.5944   -6.0587   -3.5231 N   0  0  0  0  0  0  0  0  0  0  0  0
   52.6862   -5.2372   -3.2106 C   0  0  0  0  0  0  0  0  0  0  0  0
   54.0497   -5.8531   -3.1729 C   0  0  0  0  0  0  0  0  0  0  0  0
   54.1148   -7.3357   -3.2274 C   0  0  0  0  0  0  0  0  0  0  0  0
   54.1608   -7.9434   -1.8439 C   0  0  0  0  0  0  0  0  0  0  0  0
   52.7529   -8.3906   -1.5188 C   0  0  0  0  0  0  0  0  0  0  0  0
   52.8549   -9.1451   -0.3322 O   0  0  0  0  0  0  0  0  0  0  0  0
   51.9243   -7.1439   -1.3070 C   0  0  0  0  0  0  0  0  0  0  0  0
   51.0457   -7.4839   -0.2457 O   0  0  0  0  0  0  0  0  0  0  0  0
   51.0290   -6.8379   -2.4829 C   0  0  0  0  0  0  0  0  0  0  0  0
   49.8729   -6.2828   -1.9359 O   0  0  0  0  0  0  0  0  0  0  0  0
   52.8594  -10.1075   -0.4969 H   0  0  0  0  0  0  0  0  0  0  0  0
   51.5413   -7.8483    0.5270 H   0  0  0  0  0  0  0  0  0  0  0  0
   49.9545   -5.9689   -1.0234 H   0  0  0  0  0  0  0  0  0  0  0  0
   55.2637   -7.7841   -4.0466 C   0  0  0  0  0  0  0  0  0  0  0  0
   56.5436   -7.8602   -3.5425 O   0  0  0  0  0  0  0  0  0  0  0  0
   55.0615   -8.1041   -5.2371 O   0  0  0  0  0  0  0  0  0  0  0  0
   57.2892   -7.2396   -3.7992 H   0  0  0  0  0  0  0  0  0  0  0  0
   51.2436   -5.1603   -5.7910 C   0  0  0  0  0  0  0  0  0  0  0  0
   50.9904   -5.8864   -6.7674 O   0  0  0  0  0  0  0  0  0  0  0  0
   52.0526   -4.0061   -6.0047 N   0  0  0  0  0  0  0  0  0  0  0  0
   52.2588   -3.4045   -5.1871 H   0  0  0  0  0  0  0  0  0  0  0  0
   52.5719   -3.6726   -7.3305 C   0  0  0  0  0  0  0  0  0  0  0  0
   51.5503   -3.1509   -8.2179 C   0  0  0  0  0  0  0  0  0  0  0  0
   50.1868   -3.3400   -8.0376 O   0  0  0  0  0  0  0  0  0  0  0  0
   51.8506   -2.4654   -9.2589 O   0  0  0  0  0  0  0  0  0  0  0  0
   49.5571   -3.5384   -8.8193 H   0  0  0  0  0  0  0  0  0  0  0  0
   53.1592   -4.9516   -7.8817 C   0  0  0  0  0  0  0  0  0  0  0  0
   54.6156   -4.9642   -8.0022 C   0  0  0  0  0  0  0  0  0  0  0  0
   55.3979   -5.5019   -7.0042 C   0  0  0  0  0  0  0  0  0  0  0  0
   56.7763   -5.4969   -7.1549 C   0  0  0  0  0  0  0  0  0  0  0  0
   57.2907   -4.9484   -8.3071 C   0  0  0  0  0  0  0  0  0  0  0  0
   56.5218   -4.4235   -9.2812 N   0  0  0  0  0  0  0  0  0  0  0  0
   55.1793   -4.4214   -9.1484 C   0  0  0  0  0  0  0  0  0  0  0  0
   49.5273   -3.4804   -5.2603 C   0  0  0  0  0  0  0  0  0  0  0  0
   49.7988   -4.4116   -4.0562 C   0  0  0  0  0  0  0  0  0  0  0  0
   48.4786   -4.6568   -3.4596 C   0  0  0  0  0  0  0  0  0  0  0  0
 36 37  1  0  0  0
 37 38  1  0  0  0
 37  1  1  0  0  0
  1  2  1  0  0  0
  2  3  1  0  0  0
  3  4  1  0  0  0
  4  5  1  0  0  0
  5  6  1  0  0  0
  6  7  1  0  0  0
  7  8  1  0  0  0
  7  9  1  0  0  0
  9 10  1  0  0  0
  9 11  1  0  0  0
 11 12  1  0  0  0
  5 16  1  0  0  0
 16 17  1  0  0  0
 16 18  2  0  0  0
  1 20  1  0  0  0
 20 21  2  0  0  0
 20 22  1  0  0  0
 22 24  1  0  0  0
 24 29  1  0  0  0
 29 30  1  0  0  0
 30 31  2  0  0  0
 31 32  1  0  0  0
 32 33  2  0  0  0
 33 34  1  0  0  0
 34 35  2  0  0  0
 24 25  1  0  0  0
 25 26  1  0  0  0
 25 27  2  0  0  0
 11  2  1  0  0  0
 35 30  1  0  0  0
  8 13  1  0  0  0
 10 14  1  0  0  0
 12 15  1  0  0  0
 17 19  1  0  0  0
 22 23  1  0  0  0
 26 28  1  0  0  0
M  END
> <minimizedAffinity>
-7.86215

> <CNNscore>
0.1240907460

> <CNNaffinity>
5.8959956169

> <CNN_VS>
0.7316384912

> <CNNaffinity_variance>
0.1767448038

$$$$
[H]c1nn(C([H])([H])[H])c([H])c1-c1c([H])c([H])c(N([H])c2nc([H])c3c(n2)N(C([H])([H])[H])C(=O)N(C([H])([H])[H])C(C([H])([H])[H])(C([H])([H])[H])OC3([H])[H])c(OC([H])([H])[H])c1[H]


 33 36  0  0  0  0  0  0  0  0999 V2000
   54.7091   -3.9737  -10.5774 C   0  0  0  0  0  0  0  0  0  0  0  0
   53.4296   -3.4845  -10.4461 N   0  0  0  0  0  0  0  0  0  0  0  0
   52.7311   -3.5260   -9.3161 C   0  0  0  0  0  0  0  0  0  0  0  0
   53.3161   -4.0891   -8.2106 C   0  0  0  0  0  0  0  0  0  0  0  0
   52.2840   -3.9903   -7.1185 C   0  0  0  0  0  0  0  0  0  0  0  0
   52.8115   -4.3809   -5.9012 O   0  0  0  0  0  0  0  0  0  0  0  0
   52.6908   -5.6944   -5.5740 C   0  0  0  0  0  0  0  0  0  0  0  0
   52.0745   -5.7734   -4.1745 C   0  0  0  0  0  0  0  0  0  0  0  0
   51.8560   -6.5278   -6.4757 C   0  0  0  0  0  0  0  0  0  0  0  0
   54.0338   -6.2833   -5.5080 N   0  0  0  0  0  0  0  0  0  0  0  0
   54.2327   -7.2710   -4.4855 C   0  0  0  0  0  0  0  0  0  0  0  0
   55.2134   -6.0532   -6.2911 C   0  0  0  0  0  0  0  0  0  0  0  0
   56.2235   -6.7037   -5.9585 O   0  0  0  0  0  0  0  0  0  0  0  0
   55.4873   -5.1983   -7.4214 N   0  0  0  0  0  0  0  0  0  0  0  0
   56.8586   -4.9013   -7.6636 C   0  0  0  0  0  0  0  0  0  0  0  0
   54.6069   -4.5798   -8.3491 C   0  0  0  0  0  0  0  0  0  0  0  0
   55.2695   -4.5170   -9.5037 N   0  0  0  0  0  0  0  0  0  0  0  0
   55.3389   -3.8346  -11.8282 N   0  0  0  0  0  0  0  0  0  0  0  0
   54.6431   -3.7204  -12.6578 H   0  0  0  0  0  0  0  0  0  0  0  0
   57.0183   -3.5589  -13.5176 C   0  0  0  0  0  0  0  0  0  0  0  0
   58.3281   -3.5725  -13.9266 C   0  0  0  0  0  0  0  0  0  0  0  0
   59.3611   -3.8438  -13.0652 C   0  0  0  0  0  0  0  0  0  0  0  0
   59.0428   -4.1075  -11.7550 C   0  0  0  0  0  0  0  0  0  0  0  0
   57.7202   -4.1064  -11.2869 C   0  0  0  0  0  0  0  0  0  0  0  0
   56.6988   -3.8299  -12.1719 C   0  0  0  0  0  0  0  0  0  0  0  0
   60.7178   -3.8446  -13.5438 C   0  0  0  0  0  0  0  0  0  0  0  0
   61.6922   -4.7913  -13.2517 C   0  0  0  0  0  0  0  0  0  0  0  0
   62.7933   -4.4157  -13.8922 N   0  0  0  0  0  0  0  0  0  0  0  0
   62.5766   -3.2991  -14.5654 N   0  0  0  0  0  0  0  0  0  0  0  0
   63.5989   -2.6506  -15.3611 C   0  0  0  0  0  0  0  0  0  0  0  0
   61.3028   -2.9149  -14.3743 C   0  0  0  0  0  0  0  0  0  0  0  0
   56.0859   -3.7870  -15.7161 C   0  0  0  0  0  0  0  0  0  0  0  0
   55.9918   -3.2830  -14.4002 O   0  0  0  0  0  0  0  0  0  0  0  0
 32 33  1  0  0  0
 33 20  1  0  0  0
 20 21  2  0  0  0
 21 22  1  0  0  0
 22 23  2  0  0  0
 23 24  1  0  0  0
 24 25  2  0  0  0
 25 18  1  0  0  0
 18  1  1  0  0  0
  1  2  2  0  0  0
  2  3  1  0  0  0
  3  4  2  0  0  0
  4  5  1  0  0  0
  5  6  1  0  0  0
  6  7  1  0  0  0
  7  8  1  0  0  0
  7  9  1  0  0  0
  7 10  1  0  0  0
 10 11  1  0  0  0
 10 12  1  0  0  0
 12 13  2  0  0  0
 12 14  1  0  0  0
 14 15  1  0  0  0
 14 16  1  0  0  0
 16 17  2  0  0  0
 22 26  1  0  0  0
 26 27  1  0  0  0
 27 28  2  0  0  0
 28 29  1  0  0  0
 29 30  1  0  0  0
 29 31  1  0  0  0
 25 20  1  0  0  0
 17  1  1  0  0  0
 31 26  2  0  0  0
 16  4  1  0  0  0
 18 19  1  0  0  0
M  END
> <minimizedAffinity>
-6.27440

> <CNNscore>
0.5354186893

> <CNNaffinity>
6.6902961731

> <CNN_VS>
3.5821096897

> <CNNaffinity_variance>
0.2261639833

$$$$
[H]c1nn(C([H])([H])[H])c([H])c1-c1c([H])c([H])c(N([H])c2nc([H])c3c(n2)N(C([H])([H])[H])C(=O)N(C([H])([H])[H])C(C([H])([H])[H])(C([H])([H])[H])OC3([H])[H])c(OC([H])([H])[H])c1[H]


 33 36  0  0  0  0  0  0  0  0999 V2000
   54.9262   -4.2477   -9.3019 C   0  0  0  0  0  0  0  0  0  0  0  0
   53.8338   -3.5652   -9.7861 N   0  0  0  0  0  0  0  0  0  0  0  0
   52.7224   -3.3525   -9.0891 C   0  0  0  0  0  0  0  0  0  0  0  0
   52.6547   -3.8401   -7.8088 C   0  0  0  0  0  0  0  0  0  0  0  0
   51.2919   -3.4467   -7.3030 C   0  0  0  0  0  0  0  0  0  0  0  0
   51.1580   -3.7419   -5.9586 O   0  0  0  0  0  0  0  0  0  0  0  0
   50.6614   -4.9678   -5.6467 C   0  0  0  0  0  0  0  0  0  0  0  0
   49.4990   -4.7674   -4.6702 C   0  0  0  0  0  0  0  0  0  0  0  0
   50.1560   -5.7854   -6.7784 C   0  0  0  0  0  0  0  0  0  0  0  0
   51.7058   -5.7306   -4.9523 N   0  0  0  0  0  0  0  0  0  0  0  0
   51.2528   -6.5898   -3.8953 C   0  0  0  0  0  0  0  0  0  0  0  0
   53.1276   -5.7814   -5.1349 C   0  0  0  0  0  0  0  0  0  0  0  0
   53.7518   -6.5204   -4.3485 O   0  0  0  0  0  0  0  0  0  0  0  0
   54.0190   -5.1354   -6.0686 N   0  0  0  0  0  0  0  0  0  0  0  0
   55.3893   -5.0754   -5.6864 C   0  0  0  0  0  0  0  0  0  0  0  0
   53.7599   -4.5267   -7.3258 C   0  0  0  0  0  0  0  0  0  0  0  0
   54.8543   -4.7166   -8.0622 N   0  0  0  0  0  0  0  0  0  0  0  0
   56.0477   -4.3711  -10.1431 N   0  0  0  0  0  0  0  0  0  0  0  0
   55.8659   -4.0431  -11.1651 H   0  0  0  0  0  0  0  0  0  0  0  0
   58.1635   -5.1130  -10.9937 C   0  0  0  0  0  0  0  0  0  0  0  0
   59.4264   -5.6163  -10.8073 C   0  0  0  0  0  0  0  0  0  0  0  0
   59.9320   -5.8811   -9.5594 C   0  0  0  0  0  0  0  0  0  0  0  0
   59.1233   -5.6243   -8.4790 C   0  0  0  0  0  0  0  0  0  0  0  0
   57.8250   -5.1105   -8.6159 C   0  0  0  0  0  0  0  0  0  0  0  0
   57.3393   -4.8514   -9.8807 C   0  0  0  0  0  0  0  0  0  0  0  0
   61.2634   -6.4075   -9.4177 C   0  0  0  0  0  0  0  0  0  0  0  0
   62.1584   -6.6687  -10.4482 C   0  0  0  0  0  0  0  0  0  0  0  0
   63.2628   -7.1430   -9.8833 N   0  0  0  0  0  0  0  0  0  0  0  0
   63.1221   -7.1972   -8.5702 N   0  0  0  0  0  0  0  0  0  0  0  0
   64.1667   -7.6748   -7.6873 C   0  0  0  0  0  0  0  0  0  0  0  0
   61.8972   -6.7500   -8.2441 C   0  0  0  0  0  0  0  0  0  0  0  0
   58.2235   -3.7715  -12.9816 C   0  0  0  0  0  0  0  0  0  0  0  0
   57.6723   -4.8522  -12.2584 O   0  0  0  0  0  0  0  0  0  0  0  0
 32 33  1  0  0  0
 33 20  1  0  0  0
 20 21  2  0  0  0
 21 22  1  0  0  0
 22 23  2  0  0  0
 23 24  1  0  0  0
 24 25  2  0  0  0
 25 18  1  0  0  0
 18  1  1  0  0  0
  1  2  2  0  0  0
  2  3  1  0  0  0
  3  4  2  0  0  0
  4  5  1  0  0  0
  5  6  1  0  0  0
  6  7  1  0  0  0
  7  8  1  0  0  0
  7  9  1  0  0  0
  7 10  1  0  0  0
 10 11  1  0  0  0
 10 12  1  0  0  0
 12 13  2  0  0  0
 12 14  1  0  0  0
 14 15  1  0  0  0
 14 16  1  0  0  0
 16 17  2  0  0  0
 22 26  1  0  0  0
 26 27  1  0  0  0
 27 28  2  0  0  0
 28 29  1  0  0  0
 29 30  1  0  0  0
 29 31  1  0  0  0
 25 20  1  0  0  0
 17  1  1  0  0  0
 31 26  2  0  0  0
 16  4  1  0  0  0
 18 19  1  0  0  0
M  END
> <minimizedAffinity>
-9.10521

> <CNNscore>
0.4982438087

> <CNNaffinity>
6.9909882545

> <CNN_VS>
3.4832165241

> <CNNaffinity_variance>
0.1563179195

$$$$
[H]c1nn(C([H])([H])[H])c([H])c1-c1c([H])c([H])c(N([H])c2nc([H])c3c(n2)N(C([H])([H])[H])C(=O)N(C([H])([H])[H])C(C([H])([H])[H])(C([H])([H])[H])OC3([H])[H])c(OC([H])([H])[H])c1[H]


 33 36  0  0  0  0  0  0  0  0999 V2000
   52.7881   -4.9925   -6.3141 C   0  0  0  0  0  0  0  0  0  0  0  0
   51.4956   -5.2826   -5.9413 N   0  0  0  0  0  0  0  0  0  0  0  0
   51.1587   -5.7811   -4.7562 C   0  0  0  0  0  0  0  0  0  0  0  0
   52.1555   -6.0226   -3.8455 C   0  0  0  0  0  0  0  0  0  0  0  0
   51.4608   -6.5805   -2.6315 C   0  0  0  0  0  0  0  0  0  0  0  0
   52.3426   -6.7171   -1.5748 O   0  0  0  0  0  0  0  0  0  0  0  0
   52.9865   -7.9087   -1.4639 C   0  0  0  0  0  0  0  0  0  0  0  0
   52.7907   -8.4150   -0.0321 C   0  0  0  0  0  0  0  0  0  0  0  0
   52.5446   -8.9885   -2.3822 C   0  0  0  0  0  0  0  0  0  0  0  0
   54.4224   -7.6831   -1.6688 N   0  0  0  0  0  0  0  0  0  0  0  0
   55.3011   -8.4827   -0.8630 C   0  0  0  0  0  0  0  0  0  0  0  0
   55.1307   -6.7937   -2.5433 C   0  0  0  0  0  0  0  0  0  0  0  0
   56.3741   -6.8197   -2.4563 O   0  0  0  0  0  0  0  0  0  0  0  0
   54.6931   -5.8421   -3.5366 N   0  0  0  0  0  0  0  0  0  0  0  0
   55.6333   -4.8348   -3.8952 C   0  0  0  0  0  0  0  0  0  0  0  0
   53.4568   -5.7272   -4.2270 C   0  0  0  0  0  0  0  0  0  0  0  0
   53.7479   -5.2283   -5.4280 N   0  0  0  0  0  0  0  0  0  0  0  0
   52.9934   -4.4399   -7.5920 N   0  0  0  0  0  0  0  0  0  0  0  0
   52.1118   -3.9519   -8.0041 H   0  0  0  0  0  0  0  0  0  0  0  0
   54.0279   -3.7507   -9.6427 C   0  0  0  0  0  0  0  0  0  0  0  0
   55.0951   -3.7295  -10.5050 C   0  0  0  0  0  0  0  0  0  0  0  0
   56.2837   -4.3504  -10.2140 C   0  0  0  0  0  0  0  0  0  0  0  0
   56.3787   -5.0083   -9.0116 C   0  0  0  0  0  0  0  0  0  0  0  0
   55.3170   -5.0599   -8.0960 C   0  0  0  0  0  0  0  0  0  0  0  0
   54.1324   -4.4271   -8.4106 C   0  0  0  0  0  0  0  0  0  0  0  0
   57.3733   -4.2977  -11.1519 C   0  0  0  0  0  0  0  0  0  0  0  0
   58.5914   -4.9563  -11.0351 C   0  0  0  0  0  0  0  0  0  0  0  0
   59.3028   -4.6363  -12.1098 N   0  0  0  0  0  0  0  0  0  0  0  0
   58.6152   -3.8227  -12.8922 N   0  0  0  0  0  0  0  0  0  0  0  0
   59.1378   -3.3047  -14.1401 C   0  0  0  0  0  0  0  0  0  0  0  0
   57.4154   -3.5901  -12.3324 C   0  0  0  0  0  0  0  0  0  0  0  0
   52.1913   -2.3755   -8.9424 C   0  0  0  0  0  0  0  0  0  0  0  0
   52.8392   -3.1188   -9.9535 O   0  0  0  0  0  0  0  0  0  0  0  0
 32 33  1  0  0  0
 33 20  1  0  0  0
 20 21  2  0  0  0
 21 22  1  0  0  0
 22 23  2  0  0  0
 23 24  1  0  0  0
 24 25  2  0  0  0
 25 18  1  0  0  0
 18  1  1  0  0  0
  1  2  2  0  0  0
  2  3  1  0  0  0
  3  4  2  0  0  0
  4  5  1  0  0  0
  5  6  1  0  0  0
  6  7  1  0  0  0
  7  8  1  0  0  0
  7  9  1  0  0  0
  7 10  1  0  0  0
 10 11  1  0  0  0
 10 12  1  0  0  0
 12 13  2  0  0  0
 12 14  1  0  0  0
 14 15  1  0  0  0
 14 16  1  0  0  0
 16 17  2  0  0  0
 22 26  1  0  0  0
 26 27  1  0  0  0
 27 28  2  0  0  0
 28 29  1  0  0  0
 29 30  1  0  0  0
 29 31  1  0  0  0
 25 20  1  0  0  0
 17  1  1  0  0  0
 31 26  2  0  0  0
 16  4  1  0  0  0
 18 19  1  0  0  0
M  END
> <minimizedAffinity>
-8.73921

> <CNNscore>
0.3632464111

> <CNNaffinity>
6.9669036865

> <CNN_VS>
2.5307028294

> <CNNaffinity_variance>
0.1891116202

$$$$
[H]c1nn(C([H])([H])[H])c([H])c1-c1c([H])c([H])c(N([H])c2nc([H])c3c(n2)N(C([H])([H])[H])C(=O)N(C([H])([H])[H])C(C([H])([H])[H])(C([H])([H])[H])OC3([H])[H])c(OC([H])([H])[H])c1[H]


 33 36  0  0  0  0  0  0  0  0999 V2000
   60.6073   -6.5720   -9.4308 C   0  0  0  0  0  0  0  0  0  0  0  0
   60.7965   -6.5755   -8.0678 N   0  0  0  0  0  0  0  0  0  0  0  0
   61.6402   -7.3862   -7.4373 C   0  0  0  0  0  0  0  0  0  0  0  0
   62.3694   -8.2748   -8.1856 C   0  0  0  0  0  0  0  0  0  0  0  0
   63.2077   -9.0380   -7.1944 C   0  0  0  0  0  0  0  0  0  0  0  0
   64.1123   -9.8611   -7.8402 O   0  0  0  0  0  0  0  0  0  0  0  0
   63.7020  -11.1276   -8.1131 C   0  0  0  0  0  0  0  0  0  0  0  0
   64.7665  -12.0898   -7.5784 C   0  0  0  0  0  0  0  0  0  0  0  0
   62.3981  -11.5407   -7.5355 C   0  0  0  0  0  0  0  0  0  0  0  0
   63.6379  -11.2926   -9.5704 N   0  0  0  0  0  0  0  0  0  0  0  0
   64.0276  -12.5806  -10.0704 C   0  0  0  0  0  0  0  0  0  0  0  0
   63.2499  -10.3886  -10.6143 C   0  0  0  0  0  0  0  0  0  0  0  0
   63.3357  -10.8301  -11.7770 O   0  0  0  0  0  0  0  0  0  0  0  0
   62.7646   -9.0292  -10.6026 N   0  0  0  0  0  0  0  0  0  0  0  0
   62.8957   -8.3075  -11.8230 C   0  0  0  0  0  0  0  0  0  0  0  0
   62.1748   -8.2658   -9.5597 C   0  0  0  0  0  0  0  0  0  0  0  0
   61.3163   -7.4342  -10.1491 N   0  0  0  0  0  0  0  0  0  0  0  0
   59.7017   -5.6362   -9.9645 N   0  0  0  0  0  0  0  0  0  0  0  0
   60.0880   -5.0972  -10.8279 H   0  0  0  0  0  0  0  0  0  0  0  0
   57.5171   -4.8507  -10.5656 C   0  0  0  0  0  0  0  0  0  0  0  0
   56.2442   -4.4611  -10.2329 C   0  0  0  0  0  0  0  0  0  0  0  0
   55.7885   -4.4772   -8.9387 C   0  0  0  0  0  0  0  0  0  0  0  0
   56.6589   -4.9019   -7.9643 C   0  0  0  0  0  0  0  0  0  0  0  0
   57.9700   -5.3098   -8.2521 C   0  0  0  0  0  0  0  0  0  0  0  0
   58.4048   -5.2858   -9.5610 C   0  0  0  0  0  0  0  0  0  0  0  0
   54.4440   -4.0596   -8.6423 C   0  0  0  0  0  0  0  0  0  0  0  0
   53.7029   -3.1157   -9.3429 C   0  0  0  0  0  0  0  0  0  0  0  0
   52.5230   -3.0323   -8.7391 N   0  0  0  0  0  0  0  0  0  0  0  0
   52.4731   -3.8585   -7.7086 N   0  0  0  0  0  0  0  0  0  0  0  0
   51.3068   -3.9848   -6.8587 C   0  0  0  0  0  0  0  0  0  0  0  0
   53.6442   -4.5120   -7.6167 C   0  0  0  0  0  0  0  0  0  0  0  0
   57.3231   -3.9487  -12.7800 C   0  0  0  0  0  0  0  0  0  0  0  0
   57.9574   -4.8280  -11.8750 O   0  0  0  0  0  0  0  0  0  0  0  0
 32 33  1  0  0  0
 33 20  1  0  0  0
 20 21  2  0  0  0
 21 22  1  0  0  0
 22 23  2  0  0  0
 23 24  1  0  0  0
 24 25  2  0  0  0
 25 18  1  0  0  0
 18  1  1  0  0  0
  1  2  2  0  0  0
  2  3  1  0  0  0
  3  4  2  0  0  0
  4  5  1  0  0  0
  5  6  1  0  0  0
  6  7  1  0  0  0
  7  8  1  0  0  0
  7  9  1  0  0  0
  7 10  1  0  0  0
 10 11  1  0  0  0
 10 12  1  0  0  0
 12 13  2  0  0  0
 12 14  1  0  0  0
 14 15  1  0  0  0
 14 16  1  0  0  0
 16 17  2  0  0  0
 22 26  1  0  0  0
 26 27  1  0  0  0
 27 28  2  0  0  0
 28 29  1  0  0  0
 29 30  1  0  0  0
 29 31  1  0  0  0
 25 20  1  0  0  0
 17  1  1  0  0  0
 31 26  2  0  0  0
 16  4  1  0  0  0
 18 19  1  0  0  0
M  END
> <minimizedAffinity>
-8.37945

> <CNNscore>
0.3183867037

> <CNNaffinity>
5.7973837852

> <CNN_VS>
1.8458099365

> <CNNaffinity_variance>
0.0651036501

$$$$
[H]c1nn(C([H])([H])[H])c([H])c1-c1c([H])c([H])c(N([H])c2nc([H])c3c(n2)N(C([H])([H])[H])C(=O)N(C([H])([H])[H])C(C([H])([H])[H])(C([H])([H])[H])OC3([H])[H])c(OC([H])([H])[H])c1[H]


 33 36  0  0  0  0  0  0  0  0999 V2000
   55.4471   -5.7336   -5.5425 C   0  0  0  0  0  0  0  0  0  0  0  0
   54.9905   -7.0313   -5.5115 N   0  0  0  0  0  0  0  0  0  0  0  0
   55.2531   -7.8877   -4.5296 C   0  0  0  0  0  0  0  0  0  0  0  0
   56.0252   -7.4572   -3.4808 C   0  0  0  0  0  0  0  0  0  0  0  0
   56.1420   -8.6416   -2.5582 C   0  0  0  0  0  0  0  0  0  0  0  0
   56.7670   -8.2892   -1.3759 O   0  0  0  0  0  0  0  0  0  0  0  0
   58.1190   -8.4209   -1.3345 C   0  0  0  0  0  0  0  0  0  0  0  0
   58.4719   -9.2348   -0.0863 C   0  0  0  0  0  0  0  0  0  0  0  0
   58.7554   -9.0902   -2.4970 C   0  0  0  0  0  0  0  0  0  0  0  0
   58.7126   -7.0868   -1.1842 N   0  0  0  0  0  0  0  0  0  0  0  0
   59.8836   -7.0142   -0.3570 C   0  0  0  0  0  0  0  0  0  0  0  0
   58.3349   -5.8112   -1.7208 C   0  0  0  0  0  0  0  0  0  0  0  0
   59.0408   -4.8438   -1.3742 O   0  0  0  0  0  0  0  0  0  0  0  0
   57.2739   -5.3968   -2.6073 N   0  0  0  0  0  0  0  0  0  0  0  0
   56.9382   -4.0134   -2.5778 C   0  0  0  0  0  0  0  0  0  0  0  0
   56.4819   -6.1471   -3.5174 C   0  0  0  0  0  0  0  0  0  0  0  0
   56.1934   -5.3232   -4.5243 N   0  0  0  0  0  0  0  0  0  0  0  0
   55.0647   -4.9299   -6.6326 N   0  0  0  0  0  0  0  0  0  0  0  0
   54.1342   -4.3883   -6.4714 H   0  0  0  0  0  0  0  0  0  0  0  0
   54.8659   -4.2252   -8.9162 C   0  0  0  0  0  0  0  0  0  0  0  0
   55.3950   -4.0359  -10.1680 C   0  0  0  0  0  0  0  0  0  0  0  0
   56.7056   -4.3193  -10.4593 C   0  0  0  0  0  0  0  0  0  0  0  0
   57.4905   -4.8084   -9.4433 C   0  0  0  0  0  0  0  0  0  0  0  0
   56.9977   -5.0203   -8.1469 C   0  0  0  0  0  0  0  0  0  0  0  0
   55.6768   -4.7270   -7.8783 C   0  0  0  0  0  0  0  0  0  0  0  0
   57.2123   -4.1019  -11.7881 C   0  0  0  0  0  0  0  0  0  0  0  0
   58.5477   -4.1191  -12.1720 C   0  0  0  0  0  0  0  0  0  0  0  0
   58.5728   -3.8731  -13.4768 N   0  0  0  0  0  0  0  0  0  0  0  0
   57.3457   -3.7028  -13.9374 N   0  0  0  0  0  0  0  0  0  0  0  0
   57.0614   -3.4193  -15.3294 C   0  0  0  0  0  0  0  0  0  0  0  0
   56.4760   -3.8371  -12.9213 C   0  0  0  0  0  0  0  0  0  0  0  0
   53.0711   -2.6336   -8.9286 C   0  0  0  0  0  0  0  0  0  0  0  0
   53.5436   -3.9333   -8.6422 O   0  0  0  0  0  0  0  0  0  0  0  0
 32 33  1  0  0  0
 33 20  1  0  0  0
 20 21  2  0  0  0
 21 22  1  0  0  0
 22 23  2  0  0  0
 23 24  1  0  0  0
 24 25  2  0  0  0
 25 18  1  0  0  0
 18  1  1  0  0  0
  1  2  2  0  0  0
  2  3  1  0  0  0
  3  4  2  0  0  0
  4  5  1  0  0  0
  5  6  1  0  0  0
  6  7  1  0  0  0
  7  8  1  0  0  0
  7  9  1  0  0  0
  7 10  1  0  0  0
 10 11  1  0  0  0
 10 12  1  0  0  0
 12 13  2  0  0  0
 12 14  1  0  0  0
 14 15  1  0  0  0
 14 16  1  0  0  0
 16 17  2  0  0  0
 22 26  1  0  0  0
 26 27  1  0  0  0
 27 28  2  0  0  0
 28 29  1  0  0  0
 29 30  1  0  0  0
 29 31  1  0  0  0
 25 20  1  0  0  0
 17  1  1  0  0  0
 31 26  2  0  0  0
 16  4  1  0  0  0
 18 19  1  0  0  0
M  END
> <minimizedAffinity>
-9.06739

> <CNNscore>
0.2916774154

> <CNNaffinity>
6.1705856323

> <CNN_VS>
1.7998204231

> <CNNaffinity_variance>
0.0951916724

$$$$
[H]c1nn(C([H])([H])[H])c([H])c1-c1c([H])c([H])c(N([H])c2nc([H])c3c(n2)N(C([H])([H])[H])C(=O)N(C([H])([H])[H])C(C([H])([H])[H])(C([H])([H])[H])OC3([H])[H])c(OC([H])([H])[H])c1[H]


 33 36  0  0  0  0  0  0  0  0999 V2000
   60.9051   -6.7567  -10.1746 C   0  0  0  0  0  0  0  0  0  0  0  0
   60.6570   -7.5737   -9.0954 N   0  0  0  0  0  0  0  0  0  0  0  0
   61.3561   -8.6693   -8.8173 C   0  0  0  0  0  0  0  0  0  0  0  0
   62.3888   -9.0110   -9.6528 C   0  0  0  0  0  0  0  0  0  0  0  0
   62.9639  -10.2790   -9.0792 C   0  0  0  0  0  0  0  0  0  0  0  0
   64.1213  -10.6430   -9.7430 O   0  0  0  0  0  0  0  0  0  0  0  0
   63.9803  -11.4687  -10.8131 C   0  0  0  0  0  0  0  0  0  0  0  0
   64.9362  -12.6497  -10.6222 C   0  0  0  0  0  0  0  0  0  0  0  0
   62.6241  -12.0268  -11.0452 C   0  0  0  0  0  0  0  0  0  0  0  0
   64.3969  -10.7433  -12.0193 N   0  0  0  0  0  0  0  0  0  0  0  0
   65.0826  -11.5227  -13.0108 C   0  0  0  0  0  0  0  0  0  0  0  0
   64.2444   -9.3699  -12.4041 C   0  0  0  0  0  0  0  0  0  0  0  0
   64.7449   -9.0527  -13.5010 O   0  0  0  0  0  0  0  0  0  0  0  0
   63.6126   -8.2387  -11.7679 N   0  0  0  0  0  0  0  0  0  0  0  0
   64.0270   -6.9540  -12.2206 C   0  0  0  0  0  0  0  0  0  0  0  0
   62.6346   -8.1826  -10.7389 C   0  0  0  0  0  0  0  0  0  0  0  0
   61.9061   -7.0928  -10.9790 N   0  0  0  0  0  0  0  0  0  0  0  0
   60.1017   -5.6115  -10.3282 N   0  0  0  0  0  0  0  0  0  0  0  0
   60.5677   -4.8269  -10.9220 H   0  0  0  0  0  0  0  0  0  0  0  0
   57.8541   -4.9050  -10.7752 C   0  0  0  0  0  0  0  0  0  0  0  0
   56.5906   -4.5729  -10.3555 C   0  0  0  0  0  0  0  0  0  0  0  0
   56.2193   -4.6290   -9.0357 C   0  0  0  0  0  0  0  0  0  0  0  0
   57.1661   -5.0345   -8.1264 C   0  0  0  0  0  0  0  0  0  0  0  0
   58.4712   -5.3841   -8.5041 C   0  0  0  0  0  0  0  0  0  0  0  0
   58.8204   -5.3206   -9.8371 C   0  0  0  0  0  0  0  0  0  0  0  0
   54.8811   -4.2713   -8.6472 C   0  0  0  0  0  0  0  0  0  0  0  0
   54.0986   -3.2739   -9.2164 C   0  0  0  0  0  0  0  0  0  0  0  0
   52.9420   -3.2773   -8.5637 N   0  0  0  0  0  0  0  0  0  0  0  0
   52.9453   -4.2076   -7.6249 N   0  0  0  0  0  0  0  0  0  0  0  0
   51.8152   -4.4451   -6.7502 C   0  0  0  0  0  0  0  0  0  0  0  0
   54.1291   -4.8441   -7.6459 C   0  0  0  0  0  0  0  0  0  0  0  0
   57.5408   -3.9140  -12.9373 C   0  0  0  0  0  0  0  0  0  0  0  0
   58.2089   -4.8426  -12.1090 O   0  0  0  0  0  0  0  0  0  0  0  0
 32 33  1  0  0  0
 33 20  1  0  0  0
 20 21  2  0  0  0
 21 22  1  0  0  0
 22 23  2  0  0  0
 23 24  1  0  0  0
 24 25  2  0  0  0
 25 18  1  0  0  0
 18  1  1  0  0  0
  1  2  2  0  0  0
  2  3  1  0  0  0
  3  4  2  0  0  0
  4  5  1  0  0  0
  5  6  1  0  0  0
  6  7  1  0  0  0
  7  8  1  0  0  0
  7  9  1  0  0  0
  7 10  1  0  0  0
 10 11  1  0  0  0
 10 12  1  0  0  0
 12 13  2  0  0  0
 12 14  1  0  0  0
 14 15  1  0  0  0
 14 16  1  0  0  0
 16 17  2  0  0  0
 22 26  1  0  0  0
 26 27  1  0  0  0
 27 28  2  0  0  0
 28 29  1  0  0  0
 29 30  1  0  0  0
 29 31  1  0  0  0
 25 20  1  0  0  0
 17  1  1  0  0  0
 31 26  2  0  0  0
 16  4  1  0  0  0
 18 19  1  0  0  0
M  END
> <minimizedAffinity>
-7.36933

> <CNNscore>
0.2695500851

> <CNNaffinity>
5.6856017113

> <CNN_VS>
1.5325543880

> <CNNaffinity_variance>
0.1058457047

$$$$
[H]c1nn(C([H])([H])[H])c([H])c1-c1c([H])c([H])c(N([H])c2nc([H])c3c(n2)N(C([H])([H])[H])C(=O)N(C([H])([H])[H])C(C([H])([H])[H])(C([H])([H])[H])OC3([H])[H])c(OC([H])([H])[H])c1[H]


 33 36  0  0  0  0  0  0  0  0999 V2000
   54.8626   -5.2628   -6.5345 C   0  0  0  0  0  0  0  0  0  0  0  0
   56.0829   -5.8628   -6.3235 N   0  0  0  0  0  0  0  0  0  0  0  0
   56.3626   -6.6271   -5.2727 C   0  0  0  0  0  0  0  0  0  0  0  0
   55.3792   -6.8341   -4.3393 C   0  0  0  0  0  0  0  0  0  0  0  0
   56.0024   -7.7188   -3.2920 C   0  0  0  0  0  0  0  0  0  0  0  0
   55.0595   -8.1350   -2.3698 O   0  0  0  0  0  0  0  0  0  0  0  0
   54.8893   -7.3528   -1.2716 C   0  0  0  0  0  0  0  0  0  0  0  0
   54.9993   -8.2506   -0.0360 C   0  0  0  0  0  0  0  0  0  0  0  0
   55.8525   -6.2363   -1.0977 C   0  0  0  0  0  0  0  0  0  0  0  0
   53.5319   -6.7949   -1.3028 N   0  0  0  0  0  0  0  0  0  0  0  0
   52.8799   -6.6679   -0.0303 C   0  0  0  0  0  0  0  0  0  0  0  0
   52.7143   -6.3414   -2.3906 C   0  0  0  0  0  0  0  0  0  0  0  0
   51.5731   -5.9430   -2.0851 O   0  0  0  0  0  0  0  0  0  0  0  0
   52.9411   -6.2457   -3.8129 N   0  0  0  0  0  0  0  0  0  0  0  0
   51.7767   -6.1657   -4.6284 C   0  0  0  0  0  0  0  0  0  0  0  0
   54.1505   -6.2270   -4.5582 C   0  0  0  0  0  0  0  0  0  0  0  0
   53.9152   -5.4674   -5.6276 N   0  0  0  0  0  0  0  0  0  0  0  0
   54.6996   -4.5039   -7.7085 N   0  0  0  0  0  0  0  0  0  0  0  0
   53.7712   -3.9359   -7.7365 H   0  0  0  0  0  0  0  0  0  0  0  0
   54.9464   -3.8128   -9.9915 C   0  0  0  0  0  0  0  0  0  0  0  0
   55.6902   -3.6881  -11.1378 C   0  0  0  0  0  0  0  0  0  0  0  0
   56.9994   -4.0931  -11.2086 C   0  0  0  0  0  0  0  0  0  0  0  0
   57.5572   -4.6388  -10.0779 C   0  0  0  0  0  0  0  0  0  0  0  0
   56.8397   -4.7886   -8.8817 C   0  0  0  0  0  0  0  0  0  0  0  0
   55.5251   -4.3731   -8.8349 C   0  0  0  0  0  0  0  0  0  0  0  0
   57.7364   -3.9394  -12.4345 C   0  0  0  0  0  0  0  0  0  0  0  0
   57.2075   -3.9553  -13.7195 C   0  0  0  0  0  0  0  0  0  0  0  0
   58.2262   -3.7811  -14.5535 N   0  0  0  0  0  0  0  0  0  0  0  0
   59.3569   -3.6571  -13.8805 N   0  0  0  0  0  0  0  0  0  0  0  0
   60.6378   -3.4557  -14.5267 C   0  0  0  0  0  0  0  0  0  0  0  0
   59.0940   -3.7498  -12.5655 C   0  0  0  0  0  0  0  0  0  0  0  0
   53.2744   -2.4105   -8.9950 C   0  0  0  0  0  0  0  0  0  0  0  0
   53.6294   -3.3985   -9.9397 O   0  0  0  0  0  0  0  0  0  0  0  0
 32 33  1  0  0  0
 33 20  1  0  0  0
 20 21  2  0  0  0
 21 22  1  0  0  0
 22 23  2  0  0  0
 23 24  1  0  0  0
 24 25  2  0  0  0
 25 18  1  0  0  0
 18  1  1  0  0  0
  1  2  2  0  0  0
  2  3  1  0  0  0
  3  4  2  0  0  0
  4  5  1  0  0  0
  5  6  1  0  0  0
  6  7  1  0  0  0
  7  8  1  0  0  0
  7  9  1  0  0  0
  7 10  1  0  0  0
 10 11  1  0  0  0
 10 12  1  0  0  0
 12 13  2  0  0  0
 12 14  1  0  0  0
 14 15  1  0  0  0
 14 16  1  0  0  0
 16 17  2  0  0  0
 22 26  1  0  0  0
 26 27  1  0  0  0
 27 28  2  0  0  0
 28 29  1  0  0  0
 29 30  1  0  0  0
 29 31  1  0  0  0
 25 20  1  0  0  0
 17  1  1  0  0  0
 31 26  2  0  0  0
 16  4  1  0  0  0
 18 19  1  0  0  0
M  END
> <minimizedAffinity>
-8.90014

> <CNNscore>
0.2671855986

> <CNNaffinity>
6.4839987755

> <CNN_VS>
1.7324310541

> <CNNaffinity_variance>
0.0276843868

$$$$
[H]c1nn(C([H])([H])[H])c([H])c1-c1c([H])c([H])c(N([H])c2nc([H])c3c(n2)N(C([H])([H])[H])C(=O)N(C([H])([H])[H])C(C([H])([H])[H])(C([H])([H])[H])OC3([H])[H])c(OC([H])([H])[H])c1[H]


 33 36  0  0  0  0  0  0  0  0999 V2000
   55.6338   -4.2834  -11.1274 C   0  0  0  0  0  0  0  0  0  0  0  0
   54.3412   -3.8857  -10.8730 N   0  0  0  0  0  0  0  0  0  0  0  0
   53.7967   -3.8617   -9.6609 C   0  0  0  0  0  0  0  0  0  0  0  0
   54.5651   -4.2557   -8.5952 C   0  0  0  0  0  0  0  0  0  0  0  0
   53.6733   -4.1230   -7.3890 C   0  0  0  0  0  0  0  0  0  0  0  0
   54.3830   -4.3388   -6.2218 O   0  0  0  0  0  0  0  0  0  0  0  0
   54.4259   -5.6154   -5.7576 C   0  0  0  0  0  0  0  0  0  0  0  0
   53.9998   -5.5933   -4.2870 C   0  0  0  0  0  0  0  0  0  0  0  0
   53.5652   -6.6035   -6.4557 C   0  0  0  0  0  0  0  0  0  0  0  0
   55.8152   -6.0858   -5.8164 N   0  0  0  0  0  0  0  0  0  0  0  0
   56.2309   -6.9401   -4.7403 C   0  0  0  0  0  0  0  0  0  0  0  0
   56.8610   -5.8479   -6.7689 C   0  0  0  0  0  0  0  0  0  0  0  0
   57.9606   -6.3773   -6.5141 O   0  0  0  0  0  0  0  0  0  0  0  0
   56.9111   -5.0993   -8.0020 N   0  0  0  0  0  0  0  0  0  0  0  0
   58.2080   -4.7224   -8.4530 C   0  0  0  0  0  0  0  0  0  0  0  0
   55.8681   -4.6548   -8.8581 C   0  0  0  0  0  0  0  0  0  0  0  0
   56.3721   -4.6631  -10.0917 N   0  0  0  0  0  0  0  0  0  0  0  0
   56.0864   -4.2290  -12.4589 N   0  0  0  0  0  0  0  0  0  0  0  0
   55.3182   -4.4693  -13.1920 H   0  0  0  0  0  0  0  0  0  0  0  0
   57.4108   -3.5499  -14.3391 C   0  0  0  0  0  0  0  0  0  0  0  0
   58.6224   -3.2760  -14.9221 C   0  0  0  0  0  0  0  0  0  0  0  0
   59.8035   -3.3566  -14.2283 C   0  0  0  0  0  0  0  0  0  0  0  0
   59.7396   -3.7272  -12.9069 C   0  0  0  0  0  0  0  0  0  0  0  0
   58.5268   -4.0181  -12.2646 C   0  0  0  0  0  0  0  0  0  0  0  0
   57.3525   -3.9291  -12.9829 C   0  0  0  0  0  0  0  0  0  0  0  0
   61.0478   -3.0579  -14.8856 C   0  0  0  0  0  0  0  0  0  0  0  0
   62.1878   -2.5329  -14.2889 C   0  0  0  0  0  0  0  0  0  0  0  0
   63.0994   -2.4133  -15.2471 N   0  0  0  0  0  0  0  0  0  0  0  0
   62.6100   -2.8268  -16.4032 N   0  0  0  0  0  0  0  0  0  0  0  0
   63.3783   -2.8138  -17.6313 C   0  0  0  0  0  0  0  0  0  0  0  0
   61.3421   -3.2336  -16.2194 C   0  0  0  0  0  0  0  0  0  0  0  0
   56.2798   -3.6629  -16.4517 C   0  0  0  0  0  0  0  0  0  0  0  0
   56.2320   -3.4626  -15.0545 O   0  0  0  0  0  0  0  0  0  0  0  0
 32 33  1  0  0  0
 33 20  1  0  0  0
 20 21  2  0  0  0
 21 22  1  0  0  0
 22 23  2  0  0  0
 23 24  1  0  0  0
 24 25  2  0  0  0
 25 18  1  0  0  0
 18  1  1  0  0  0
  1  2  2  0  0  0
  2  3  1  0  0  0
  3  4  2  0  0  0
  4  5  1  0  0  0
  5  6  1  0  0  0
  6  7  1  0  0  0
  7  8  1  0  0  0
  7  9  1  0  0  0
  7 10  1  0  0  0
 10 11  1  0  0  0
 10 12  1  0  0  0
 12 13  2  0  0  0
 12 14  1  0  0  0
 14 15  1  0  0  0
 14 16  1  0  0  0
 16 17  2  0  0  0
 22 26  1  0  0  0
 26 27  1  0  0  0
 27 28  2  0  0  0
 28 29  1  0  0  0
 29 30  1  0  0  0
 29 31  1  0  0  0
 25 20  1  0  0  0
 17  1  1  0  0  0
 31 26  2  0  0  0
 16  4  1  0  0  0
 18 19  1  0  0  0
M  END
> <minimizedAffinity>
-5.73958

> <CNNscore>
0.2654023468

> <CNNaffinity>
6.2360243797

> <CNN_VS>
1.6550555229

> <CNNaffinity_variance>
0.1101412550

$$$$
[H]c1nn(C([H])([H])[H])c([H])c1-c1c([H])c([H])c(N([H])c2nc([H])c3c(n2)N(C([H])([H])[H])C(=O)N(C([H])([H])[H])C(C([H])([H])[H])(C([H])([H])[H])OC3([H])[H])c(OC([H])([H])[H])c1[H]


 33 36  0  0  0  0  0  0  0  0999 V2000
   56.2856   -5.8674   -5.9467 C   0  0  0  0  0  0  0  0  0  0  0  0
   56.6849   -6.5942   -4.8485 N   0  0  0  0  0  0  0  0  0  0  0  0
   55.8503   -7.0744   -3.9323 C   0  0  0  0  0  0  0  0  0  0  0  0
   54.5086   -6.8343   -4.0858 C   0  0  0  0  0  0  0  0  0  0  0  0
   53.8474   -7.4906   -2.9027 C   0  0  0  0  0  0  0  0  0  0  0  0
   52.4701   -7.4584   -3.0236 O   0  0  0  0  0  0  0  0  0  0  0  0
   51.8326   -6.3849   -2.4868 C   0  0  0  0  0  0  0  0  0  0  0  0
   50.7172   -6.9093   -1.5781 C   0  0  0  0  0  0  0  0  0  0  0  0
   52.6638   -5.4557   -1.6805 C   0  0  0  0  0  0  0  0  0  0  0  0
   51.2061   -5.6234   -3.5742 N   0  0  0  0  0  0  0  0  0  0  0  0
   49.9332   -5.0335   -3.2703 C   0  0  0  0  0  0  0  0  0  0  0  0
   51.6359   -5.3504   -4.9152 C   0  0  0  0  0  0  0  0  0  0  0  0
   50.8476   -4.6849   -5.6151 O   0  0  0  0  0  0  0  0  0  0  0  0
   52.8290   -5.6954   -5.6509 N   0  0  0  0  0  0  0  0  0  0  0  0
   52.7280   -5.6370   -7.0699 C   0  0  0  0  0  0  0  0  0  0  0  0
   54.1120   -6.1015   -5.1958 C   0  0  0  0  0  0  0  0  0  0  0  0
   54.9859   -5.6390   -6.0894 N   0  0  0  0  0  0  0  0  0  0  0  0
   57.2786   -5.4476   -6.8513 N   0  0  0  0  0  0  0  0  0  0  0  0
   58.2614   -5.3299   -6.3980 H   0  0  0  0  0  0  0  0  0  0  0  0
   58.3623   -5.3747   -8.9892 C   0  0  0  0  0  0  0  0  0  0  0  0
   58.3648   -5.0738  -10.3280 C   0  0  0  0  0  0  0  0  0  0  0  0
   57.2650   -4.5547  -10.9636 C   0  0  0  0  0  0  0  0  0  0  0  0
   56.1379   -4.3392  -10.2082 C   0  0  0  0  0  0  0  0  0  0  0  0
   56.0843   -4.6294   -8.8366 C   0  0  0  0  0  0  0  0  0  0  0  0
   57.2024   -5.1515   -8.2202 C   0  0  0  0  0  0  0  0  0  0  0  0
   57.3186   -4.2572  -12.3701 C   0  0  0  0  0  0  0  0  0  0  0  0
   58.4232   -3.7860  -13.0694 C   0  0  0  0  0  0  0  0  0  0  0  0
   58.0429   -3.6463  -14.3342 N   0  0  0  0  0  0  0  0  0  0  0  0
   56.7765   -3.9972  -14.4761 N   0  0  0  0  0  0  0  0  0  0  0  0
   56.0858   -3.9488  -15.7486 C   0  0  0  0  0  0  0  0  0  0  0  0
   56.2940   -4.3814  -13.2818 C   0  0  0  0  0  0  0  0  0  0  0  0
   60.5728   -6.2887   -9.1714 C   0  0  0  0  0  0  0  0  0  0  0  0
   59.4798   -5.8975   -8.3672 O   0  0  0  0  0  0  0  0  0  0  0  0
 32 33  1  0  0  0
 33 20  1  0  0  0
 20 21  2  0  0  0
 21 22  1  0  0  0
 22 23  2  0  0  0
 23 24  1  0  0  0
 24 25  2  0  0  0
 25 18  1  0  0  0
 18  1  1  0  0  0
  1  2  2  0  0  0
  2  3  1  0  0  0
  3  4  2  0  0  0
  4  5  1  0  0  0
  5  6  1  0  0  0
  6  7  1  0  0  0
  7  8  1  0  0  0
  7  9  1  0  0  0
  7 10  1  0  0  0
 10 11  1  0  0  0
 10 12  1  0  0  0
 12 13  2  0  0  0
 12 14  1  0  0  0
 14 15  1  0  0  0
 14 16  1  0  0  0
 16 17  2  0  0  0
 22 26  1  0  0  0
 26 27  1  0  0  0
 27 28  2  0  0  0
 28 29  1  0  0  0
 29 30  1  0  0  0
 29 31  1  0  0  0
 25 20  1  0  0  0
 17  1  1  0  0  0
 31 26  2  0  0  0
 16  4  1  0  0  0
 18 19  1  0  0  0
M  END
> <minimizedAffinity>
-10.14605

> <CNNscore>
0.2646640539

> <CNNaffinity>
6.2143125534

> <CNN_VS>
1.6447051764

> <CNNaffinity_variance>
0.2896274626

$$$$
[H]c1c([H])c2c([H])c([H])c1C(=O)N([H])N(C(=O)C([H])([H])[H])C([H])([H])C([H])([H])C21C([H])([H])C([H])([H])N(c2c([H])c([H])c(C([H])([H])[H])c([H])c2[H])C([H])([H])C1([H])[H]


 29 32  0  0  0  0  0  0  0  0999 V2000
   63.0956  -10.8535   -0.6054 C   0  0  0  0  0  0  0  0  0  0  0  0
   63.4312  -10.2674   -1.9448 C   0  0  0  0  0  0  0  0  0  0  0  0
   64.4718   -9.1925   -2.0536 O   0  0  0  0  0  0  0  0  0  0  0  0
   62.7262  -10.7561   -3.1753 N   0  0  0  0  0  0  0  0  0  0  0  0
   63.2641   -9.9951   -4.3508 C   0  0  0  0  0  0  0  0  0  0  0  0
   63.1608   -9.8268   -5.8376 C   0  0  0  0  0  0  0  0  0  0  0  0
   62.4558  -10.3155   -7.0682 C   0  0  0  0  0  0  0  0  0  0  0  0
   61.9315  -10.5942   -8.4457 C   0  0  0  0  0  0  0  0  0  0  0  0
   62.4693   -9.8332   -9.6210 C   0  0  0  0  0  0  0  0  0  0  0  0
   63.5315   -8.7935   -9.4190 N   0  0  0  0  0  0  0  0  0  0  0  0
   64.0559   -8.5148   -8.0415 C   0  0  0  0  0  0  0  0  0  0  0  0
   63.5180   -9.2758   -6.8662 C   0  0  0  0  0  0  0  0  0  0  0  0
   61.4185  -11.2746   -7.5723 C   0  0  0  0  0  0  0  0  0  0  0  0
   60.4450  -12.3377   -7.1574 C   0  0  0  0  0  0  0  0  0  0  0  0
   59.9072  -13.0987   -5.9820 C   0  0  0  0  0  0  0  0  0  0  0  0
   60.0105  -13.2670   -4.4950 C   0  0  0  0  0  0  0  0  0  0  0  0
   60.9840  -12.2039   -4.9099 C   0  0  0  0  0  0  0  0  0  0  0  0
   61.5218  -11.4429   -6.0853 C   0  0  0  0  0  0  0  0  0  0  0  0
   60.7154  -12.7783   -3.2645 C   0  0  0  0  0  0  0  0  0  0  0  0
   60.1775  -13.5394   -2.0891 O   0  0  0  0  0  0  0  0  0  0  0  0
   61.7527  -11.8192   -2.7604 N   0  0  0  0  0  0  0  0  0  0  0  0
   61.7264  -12.1158   -1.2902 H   0  0  0  0  0  0  0  0  0  0  0  0
   64.0694   -8.0325  -10.5944 C   0  0  0  0  0  0  0  0  0  0  0  0
   64.6625   -6.6689  -10.3973 C   0  0  0  0  0  0  0  0  0  0  0  0
   65.2004   -5.9079  -11.5728 C   0  0  0  0  0  0  0  0  0  0  0  0
   65.1450   -6.5105  -12.9453 C   0  0  0  0  0  0  0  0  0  0  0  0
   65.6828   -5.7495  -14.1207 C   0  0  0  0  0  0  0  0  0  0  0  0
   64.5518   -7.8741  -13.1424 C   0  0  0  0  0  0  0  0  0  0  0  0
   64.0140   -8.6350  -11.9670 C   0  0  0  0  0  0  0  0  0  0  0  0
  1  2  1  0  0  0
  2  3  2  0  0  0
  2  4  1  0  0  0
  4  5  1  0  0  0
  5  6  1  0  0  0
  6  7  1  0  0  0
  7  8  1  0  0  0
  8  9  1  0  0  0
  9 10  1  0  0  0
 10 11  1  0  0  0
 11 12  1  0  0  0
 10 23  1  0  0  0
 23 24  2  0  0  0
 24 25  1  0  0  0
 25 26  2  0  0  0
 26 27  1  0  0  0
 26 28  1  0  0  0
 28 29  2  0  0  0
  7 13  1  0  0  0
 13 14  2  0  0  0
 14 15  1  0  0  0
 15 16  2  0  0  0
 16 17  1  0  0  0
 17 18  2  0  0  0
 16 19  1  0  0  0
 19 20  2  0  0  0
 19 21  1  0  0  0
 21  4  1  0  0  0
 12  7  1  0  0  0
 29 23  1  0  0  0
 18 13  1  0  0  0
 21 22  1  0  0  0
M  END
> <minimizedAffinity>
-2.56282

> <CNNscore>
0.5508883595

> <CNNaffinity>
5.0655636787

> <CNN_VS>
2.7905600071

> <CNNaffinity_variance>
0.6715210080

$$$$
[H]c1c([H])c2c([H])c([H])c1C(=O)N([H])N(C(=O)C([H])([H])[H])C([H])([H])C([H])([H])C21C([H])([H])C([H])([H])N(c2c([H])c([H])c(C([H])([H])[H])c([H])c2[H])C([H])([H])C1([H])[H]


 29 32  0  0  0  0  0  0  0  0999 V2000
   62.8398   -7.5606   -1.3916 C   0  0  0  0  0  0  0  0  0  0  0  0
   63.0404   -7.8590   -2.8479 C   0  0  0  0  0  0  0  0  0  0  0  0
   63.8420   -6.9220   -3.7020 O   0  0  0  0  0  0  0  0  0  0  0  0
   62.4394   -9.0943   -3.4501 N   0  0  0  0  0  0  0  0  0  0  0  0
   62.8040   -9.1254   -4.9049 C   0  0  0  0  0  0  0  0  0  0  0  0
   62.6579   -9.9081   -6.1760 C   0  0  0  0  0  0  0  0  0  0  0  0
   62.0570  -11.1435   -6.7784 C   0  0  0  0  0  0  0  0  0  0  0  0
   61.5894  -12.2751   -7.6447 C   0  0  0  0  0  0  0  0  0  0  0  0
   61.9540  -12.3062   -9.0994 C   0  0  0  0  0  0  0  0  0  0  0  0
   62.7862  -11.2055   -9.6876 N   0  0  0  0  0  0  0  0  0  0  0  0
   63.2537  -10.0738   -8.8213 C   0  0  0  0  0  0  0  0  0  0  0  0
   62.8891  -10.0428   -7.3666 C   0  0  0  0  0  0  0  0  0  0  0  0
   61.2307  -12.3596   -6.4815 C   0  0  0  0  0  0  0  0  0  0  0  0
   60.4946  -13.0921   -5.3990 C   0  0  0  0  0  0  0  0  0  0  0  0
   60.1300  -13.0611   -3.9444 C   0  0  0  0  0  0  0  0  0  0  0  0
   60.2761  -12.2784   -2.6731 C   0  0  0  0  0  0  0  0  0  0  0  0
   61.0121  -11.5459   -3.7556 C   0  0  0  0  0  0  0  0  0  0  0  0
   61.3767  -11.5769   -5.2102 C   0  0  0  0  0  0  0  0  0  0  0  0
   60.8770  -11.0431   -2.0709 C   0  0  0  0  0  0  0  0  0  0  0  0
   60.5124  -11.0120   -0.6161 O   0  0  0  0  0  0  0  0  0  0  0  0
   61.7034   -9.8268   -2.3677 N   0  0  0  0  0  0  0  0  0  0  0  0
   61.7483   -9.1748   -1.0175 H   0  0  0  0  0  0  0  0  0  0  0  0
   63.1508  -11.2365  -11.1424 C   0  0  0  0  0  0  0  0  0  0  0  0
   62.7681  -12.4159  -11.9865 C   0  0  0  0  0  0  0  0  0  0  0  0
   63.1327  -12.4470  -13.4412 C   0  0  0  0  0  0  0  0  0  0  0  0
   63.8800  -11.2986  -14.0518 C   0  0  0  0  0  0  0  0  0  0  0  0
   64.2446  -11.3296  -15.5064 C   0  0  0  0  0  0  0  0  0  0  0  0
   64.2627  -10.1192  -13.2076 C   0  0  0  0  0  0  0  0  0  0  0  0
   63.8981  -10.0882  -11.7529 C   0  0  0  0  0  0  0  0  0  0  0  0
  1  2  1  0  0  0
  2  3  2  0  0  0
  2  4  1  0  0  0
  4  5  1  0  0  0
  5  6  1  0  0  0
  6  7  1  0  0  0
  7  8  1  0  0  0
  8  9  1  0  0  0
  9 10  1  0  0  0
 10 11  1  0  0  0
 11 12  1  0  0  0
 10 23  1  0  0  0
 23 24  2  0  0  0
 24 25  1  0  0  0
 25 26  2  0  0  0
 26 27  1  0  0  0
 26 28  1  0  0  0
 28 29  2  0  0  0
  7 13  1  0  0  0
 13 14  2  0  0  0
 14 15  1  0  0  0
 15 16  2  0  0  0
 16 17  1  0  0  0
 17 18  2  0  0  0
 16 19  1  0  0  0
 19 20  2  0  0  0
 19 21  1  0  0  0
 21  4  1  0  0  0
 12  7  1  0  0  0
 29 23  1  0  0  0
 18 13  1  0  0  0
 21 22  1  0  0  0
M  END
> <minimizedAffinity>
-3.91477

> <CNNscore>
0.5378078818

> <CNNaffinity>
4.9349908829

> <CNN_VS>
2.6540770531

> <CNNaffinity_variance>
0.2192806900

$$$$
[H]c1c([H])c2c([H])c([H])c1C(=O)N([H])N(C(=O)C([H])([H])[H])C([H])([H])C([H])([H])C21C([H])([H])C([H])([H])N(c2c([H])c([H])c(C([H])([H])[H])c([H])c2[H])C([H])([H])C1([H])[H]


 29 32  0  0  0  0  0  0  0  0999 V2000
   61.0948   -4.0661   -6.4407 C   0  0  0  0  0  0  0  0  0  0  0  0
   61.4249   -4.9089   -7.6368 C   0  0  0  0  0  0  0  0  0  0  0  0
   61.1808   -4.3785   -9.0185 O   0  0  0  0  0  0  0  0  0  0  0  0
   61.9992   -6.2822   -7.4512 N   0  0  0  0  0  0  0  0  0  0  0  0
   62.2239   -6.8781   -8.8094 C   0  0  0  0  0  0  0  0  0  0  0  0
   62.7177   -8.0950   -9.5340 C   0  0  0  0  0  0  0  0  0  0  0  0
   63.2920   -9.4683   -9.3485 C   0  0  0  0  0  0  0  0  0  0  0  0
   63.8641  -10.8490   -9.4764 C   0  0  0  0  0  0  0  0  0  0  0  0
   64.0888  -11.4448  -10.8345 C   0  0  0  0  0  0  0  0  0  0  0  0
   63.7414  -10.6599  -12.0647 N   0  0  0  0  0  0  0  0  0  0  0  0
   63.1693   -9.2792  -11.9368 C   0  0  0  0  0  0  0  0  0  0  0  0
   62.9447   -8.6834  -10.5787 C   0  0  0  0  0  0  0  0  0  0  0  0
   63.7274  -10.4732   -8.3236 C   0  0  0  0  0  0  0  0  0  0  0  0
   63.8576  -10.7260   -6.8508 C   0  0  0  0  0  0  0  0  0  0  0  0
   63.6329  -10.1302   -5.4927 C   0  0  0  0  0  0  0  0  0  0  0  0
   63.1391   -8.9132   -4.7680 C   0  0  0  0  0  0  0  0  0  0  0  0
   63.0089   -8.6604   -6.2408 C   0  0  0  0  0  0  0  0  0  0  0  0
   63.2336   -9.2562   -7.5989 C   0  0  0  0  0  0  0  0  0  0  0  0
   62.5649   -7.5400   -4.9535 C   0  0  0  0  0  0  0  0  0  0  0  0
   62.3402   -6.9441   -3.5954 O   0  0  0  0  0  0  0  0  0  0  0  0
   62.1294   -6.5350   -5.9785 N   0  0  0  0  0  0  0  0  0  0  0  0
   61.6755   -5.4077   -5.0991 H   0  0  0  0  0  0  0  0  0  0  0  0
   63.9661  -11.2558  -13.4228 C   0  0  0  0  0  0  0  0  0  0  0  0
   62.7941  -11.6377  -14.2775 C   0  0  0  0  0  0  0  0  0  0  0  0
   63.0189  -12.2336  -15.6357 C   0  0  0  0  0  0  0  0  0  0  0  0
   64.4156  -12.4476  -16.1390 C   0  0  0  0  0  0  0  0  0  0  0  0
   64.6404  -13.0435  -17.4971 C   0  0  0  0  0  0  0  0  0  0  0  0
   65.5876  -12.0657  -15.2842 C   0  0  0  0  0  0  0  0  0  0  0  0
   65.3628  -11.4698  -13.9261 C   0  0  0  0  0  0  0  0  0  0  0  0
  1  2  1  0  0  0
  2  3  2  0  0  0
  2  4  1  0  0  0
  4  5  1  0  0  0
  5  6  1  0  0  0
  6  7  1  0  0  0
  7  8  1  0  0  0
  8  9  1  0  0  0
  9 10  1  0  0  0
 10 11  1  0  0  0
 11 12  1  0  0  0
 10 23  1  0  0  0
 23 24  2  0  0  0
 24 25  1  0  0  0
 25 26  2  0  0  0
 26 27  1  0  0  0
 26 28  1  0  0  0
 28 29  2  0  0  0
  7 13  1  0  0  0
 13 14  2  0  0  0
 14 15  1  0  0  0
 15 16  2  0  0  0
 16 17  1  0  0  0
 17 18  2  0  0  0
 16 19  1  0  0  0
 19 20  2  0  0  0
 19 21  1  0  0  0
 21  4  1  0  0  0
 12  7  1  0  0  0
 29 23  1  0  0  0
 18 13  1  0  0  0
 21 22  1  0  0  0
M  END
> <minimizedAffinity>
27.62201

> <CNNscore>
0.4655310810

> <CNNaffinity>
4.7195844650

> <CNN_VS>
2.1971132755

> <CNNaffinity_variance>
0.8257240057

$$$$
[H]c1c([H])c2c([H])c([H])c1C(=O)N([H])N(C(=O)C([H])([H])[H])C([H])([H])C([H])([H])C21C([H])([H])C([H])([H])N(c2c([H])c([H])c(C([H])([H])[H])c([H])c2[H])C([H])([H])C1([H])[H]


 29 32  0  0  0  0  0  0  0  0999 V2000
   62.3628   -8.7216   -2.5173 C   0  0  0  0  0  0  0  0  0  0  0  0
   62.6515   -8.3569   -3.9433 C   0  0  0  0  0  0  0  0  0  0  0  0
   63.0534   -6.9545   -4.2922 O   0  0  0  0  0  0  0  0  0  0  0  0
   62.5382   -9.3945   -5.0205 N   0  0  0  0  0  0  0  0  0  0  0  0
   62.8825   -8.7449   -6.3280 C   0  0  0  0  0  0  0  0  0  0  0  0
   63.0252   -8.9847   -7.8018 C   0  0  0  0  0  0  0  0  0  0  0  0
   62.9120  -10.0223   -8.8791 C   0  0  0  0  0  0  0  0  0  0  0  0
   62.8841  -10.8252  -10.1458 C   0  0  0  0  0  0  0  0  0  0  0  0
   63.2283  -10.1755  -11.4532 C   0  0  0  0  0  0  0  0  0  0  0  0
   63.6004   -8.7230  -11.4939 N   0  0  0  0  0  0  0  0  0  0  0  0
   63.6283   -7.9201  -10.2272 C   0  0  0  0  0  0  0  0  0  0  0  0
   63.2841   -8.5698   -8.9198 C   0  0  0  0  0  0  0  0  0  0  0  0
   62.5859  -11.4615   -9.1482 C   0  0  0  0  0  0  0  0  0  0  0  0
   62.1717  -12.7525   -8.5065 C   0  0  0  0  0  0  0  0  0  0  0  0
   61.8275  -13.4021   -7.1991 C   0  0  0  0  0  0  0  0  0  0  0  0
   61.6847  -13.1623   -5.7253 C   0  0  0  0  0  0  0  0  0  0  0  0
   62.0990  -11.8714   -6.3670 C   0  0  0  0  0  0  0  0  0  0  0  0
   62.4432  -11.2217   -7.6744 C   0  0  0  0  0  0  0  0  0  0  0  0
   61.7980  -12.1248   -4.6481 C   0  0  0  0  0  0  0  0  0  0  0  0
   61.4537  -12.7744   -3.3406 O   0  0  0  0  0  0  0  0  0  0  0  0
   62.1240  -10.6855   -4.3789 N   0  0  0  0  0  0  0  0  0  0  0  0
   61.9349  -10.6225   -2.8921 H   0  0  0  0  0  0  0  0  0  0  0  0
   63.9447   -8.0733  -12.8014 C   0  0  0  0  0  0  0  0  0  0  0  0
   63.1266   -6.9212  -13.3048 C   0  0  0  0  0  0  0  0  0  0  0  0
   63.4708   -6.2716  -14.6123 C   0  0  0  0  0  0  0  0  0  0  0  0
   64.6332   -6.7740  -15.4164 C   0  0  0  0  0  0  0  0  0  0  0  0
   64.9774   -6.1244  -16.7238 C   0  0  0  0  0  0  0  0  0  0  0  0
   65.4512   -7.9262  -14.9129 C   0  0  0  0  0  0  0  0  0  0  0  0
   65.1070   -8.5758  -13.6055 C   0  0  0  0  0  0  0  0  0  0  0  0
  1  2  1  0  0  0
  2  3  2  0  0  0
  2  4  1  0  0  0
  4  5  1  0  0  0
  5  6  1  0  0  0
  6  7  1  0  0  0
  7  8  1  0  0  0
  8  9  1  0  0  0
  9 10  1  0  0  0
 10 11  1  0  0  0
 11 12  1  0  0  0
 10 23  1  0  0  0
 23 24  2  0  0  0
 24 25  1  0  0  0
 25 26  2  0  0  0
 26 27  1  0  0  0
 26 28  1  0  0  0
 28 29  2  0  0  0
  7 13  1  0  0  0
 13 14  2  0  0  0
 14 15  1  0  0  0
 15 16  2  0  0  0
 16 17  1  0  0  0
 17 18  2  0  0  0
 16 19  1  0  0  0
 19 20  2  0  0  0
 19 21  1  0  0  0
 21  4  1  0  0  0
 12  7  1  0  0  0
 29 23  1  0  0  0
 18 13  1  0  0  0
 21 22  1  0  0  0
M  END
> <minimizedAffinity>
-3.24263

> <CNNscore>
0.4606044292

> <CNNaffinity>
4.8463149071

> <CNN_VS>
2.2322340012

> <CNNaffinity_variance>
0.2791181803

$$$$
[H]c1c([H])c2c([H])c([H])c1C(=O)N([H])N(C(=O)C([H])([H])[H])C([H])([H])C([H])([H])C21C([H])([H])C([H])([H])N(c2c([H])c([H])c(C([H])([H])[H])c([H])c2[H])C([H])([H])C1([H])[H]


 29 32  0  0  0  0  0  0  0  0999 V2000
   56.1061   -3.0164  -14.3956 C   0  0  0  0  0  0  0  0  0  0  0  0
   57.0140   -3.6921  -13.4112 C   0  0  0  0  0  0  0  0  0  0  0  0
   56.4703   -4.1775  -12.1002 O   0  0  0  0  0  0  0  0  0  0  0  0
   58.4656   -3.8825  -13.7378 N   0  0  0  0  0  0  0  0  0  0  0  0
   59.1141   -4.5790  -12.5783 C   0  0  0  0  0  0  0  0  0  0  0  0
   60.4120   -5.1271  -12.0636 C   0  0  0  0  0  0  0  0  0  0  0  0
   61.8636   -5.3175  -12.3902 C   0  0  0  0  0  0  0  0  0  0  0  0
   63.3272   -5.6431  -12.4342 C   0  0  0  0  0  0  0  0  0  0  0  0
   63.9757   -6.3395  -11.2747 C   0  0  0  0  0  0  0  0  0  0  0  0
   63.1606   -6.7103  -10.0713 N   0  0  0  0  0  0  0  0  0  0  0  0
   61.6971   -6.3847  -10.0273 C   0  0  0  0  0  0  0  0  0  0  0  0
   61.0486   -5.6883  -11.1868 C   0  0  0  0  0  0  0  0  0  0  0  0
   62.9143   -5.0775  -13.4334 C   0  0  0  0  0  0  0  0  0  0  0  0
   63.1629   -4.4987  -14.7948 C   0  0  0  0  0  0  0  0  0  0  0  0
   62.5144   -3.8023  -15.9542 C   0  0  0  0  0  0  0  0  0  0  0  0
   61.2165   -3.2542  -16.4690 C   0  0  0  0  0  0  0  0  0  0  0  0
   60.9679   -3.8329  -15.1076 C   0  0  0  0  0  0  0  0  0  0  0  0
   61.6164   -4.5294  -13.9482 C   0  0  0  0  0  0  0  0  0  0  0  0
   59.7650   -3.0638  -16.1424 C   0  0  0  0  0  0  0  0  0  0  0  0
   59.1164   -2.3673  -17.3019 O   0  0  0  0  0  0  0  0  0  0  0  0
   58.7141   -3.3038  -15.0992 N   0  0  0  0  0  0  0  0  0  0  0  0
   57.5091   -2.7073  -15.7642 H   0  0  0  0  0  0  0  0  0  0  0  0
   63.8092   -7.4068   -8.9118 C   0  0  0  0  0  0  0  0  0  0  0  0
   64.9237   -8.3819   -9.1506 C   0  0  0  0  0  0  0  0  0  0  0  0
   65.5722   -9.0784   -7.9911 C   0  0  0  0  0  0  0  0  0  0  0  0
   65.1063   -8.7996   -6.5928 C   0  0  0  0  0  0  0  0  0  0  0  0
   65.7548   -9.4960   -5.4333 C   0  0  0  0  0  0  0  0  0  0  0  0
   63.9918   -7.8244   -6.3540 C   0  0  0  0  0  0  0  0  0  0  0  0
   63.3433   -7.1280   -7.5135 C   0  0  0  0  0  0  0  0  0  0  0  0
  1  2  1  0  0  0
  2  3  2  0  0  0
  2  4  1  0  0  0
  4  5  1  0  0  0
  5  6  1  0  0  0
  6  7  1  0  0  0
  7  8  1  0  0  0
  8  9  1  0  0  0
  9 10  1  0  0  0
 10 11  1  0  0  0
 11 12  1  0  0  0
 10 23  1  0  0  0
 23 24  2  0  0  0
 24 25  1  0  0  0
 25 26  2  0  0  0
 26 27  1  0  0  0
 26 28  1  0  0  0
 28 29  2  0  0  0
  7 13  1  0  0  0
 13 14  2  0  0  0
 14 15  1  0  0  0
 15 16  2  0  0  0
 16 17  1  0  0  0
 17 18  2  0  0  0
 16 19  1  0  0  0
 19 20  2  0  0  0
 19 21  1  0  0  0
 21  4  1  0  0  0
 12  7  1  0  0  0
 29 23  1  0  0  0
 18 13  1  0  0  0
 21 22  1  0  0  0
M  END
> <minimizedAffinity>
0.57547

> <CNNscore>
0.4598286152

> <CNNaffinity>
4.7123327255

> <CNN_VS>
2.1668653488

> <CNNaffinity_variance>
0.1993204802

$$$$
[H]c1c([H])c2c([H])c([H])c1C(=O)N([H])N(C(=O)C([H])([H])[H])C([H])([H])C([H])([H])C21C([H])([H])C([H])([H])N(c2c([H])c([H])c(C([H])([H])[H])c([H])c2[H])C([H])([H])C1([H])[H]


 29 32  0  0  0  0  0  0  0  0999 V2000
   64.9011   -7.1940  -15.3322 C   0  0  0  0  0  0  0  0  0  0  0  0
   63.9026   -7.0931  -14.2174 C   0  0  0  0  0  0  0  0  0  0  0  0
   63.9810   -8.0352  -13.0528 O   0  0  0  0  0  0  0  0  0  0  0  0
   62.8258   -6.0500  -14.2670 N   0  0  0  0  0  0  0  0  0  0  0  0
   61.9878   -6.1896  -13.0307 C   0  0  0  0  0  0  0  0  0  0  0  0
   60.8045   -5.6313  -12.2974 C   0  0  0  0  0  0  0  0  0  0  0  0
   59.7276   -4.5882  -12.3471 C   0  0  0  0  0  0  0  0  0  0  0  0
   58.5639   -3.6689  -12.1221 C   0  0  0  0  0  0  0  0  0  0  0  0
   57.7260   -3.8085  -10.8858 C   0  0  0  0  0  0  0  0  0  0  0  0
   58.0517   -4.8674   -9.8746 N   0  0  0  0  0  0  0  0  0  0  0  0
   59.2154   -5.7867  -10.0996 C   0  0  0  0  0  0  0  0  0  0  0  0
   60.0534   -5.6471  -11.3358 C   0  0  0  0  0  0  0  0  0  0  0  0
   59.1687   -3.4588  -13.1608 C   0  0  0  0  0  0  0  0  0  0  0  0
   59.3412   -2.6745  -14.4277 C   0  0  0  0  0  0  0  0  0  0  0  0
   60.1791   -2.5349  -15.6640 C   0  0  0  0  0  0  0  0  0  0  0  0
   61.3625   -3.0933  -16.3973 C   0  0  0  0  0  0  0  0  0  0  0  0
   61.1901   -3.8776  -15.1304 C   0  0  0  0  0  0  0  0  0  0  0  0
   60.3521   -4.0172  -13.8942 C   0  0  0  0  0  0  0  0  0  0  0  0
   62.4393   -4.1363  -16.3477 C   0  0  0  0  0  0  0  0  0  0  0  0
   63.2773   -3.9967  -17.5840 O   0  0  0  0  0  0  0  0  0  0  0  0
   62.9983   -5.2657  -15.5340 N   0  0  0  0  0  0  0  0  0  0  0  0
   64.1481   -5.6973  -16.3952 H   0  0  0  0  0  0  0  0  0  0  0  0
   57.2137   -5.0070   -8.6383 C   0  0  0  0  0  0  0  0  0  0  0  0
   55.7460   -5.2933   -8.7555 C   0  0  0  0  0  0  0  0  0  0  0  0
   54.9080   -5.4329   -7.5192 C   0  0  0  0  0  0  0  0  0  0  0  0
   55.5378   -5.2862   -6.1658 C   0  0  0  0  0  0  0  0  0  0  0  0
   54.6999   -5.4258   -4.9295 C   0  0  0  0  0  0  0  0  0  0  0  0
   57.0056   -4.9999   -6.0486 C   0  0  0  0  0  0  0  0  0  0  0  0
   57.8435   -4.8603   -7.2849 C   0  0  0  0  0  0  0  0  0  0  0  0
  1  2  1  0  0  0
  2  3  2  0  0  0
  2  4  1  0  0  0
  4  5  1  0  0  0
  5  6  1  0  0  0
  6  7  1  0  0  0
  7  8  1  0  0  0
  8  9  1  0  0  0
  9 10  1  0  0  0
 10 11  1  0  0  0
 11 12  1  0  0  0
 10 23  1  0  0  0
 23 24  2  0  0  0
 24 25  1  0  0  0
 25 26  2  0  0  0
 26 27  1  0  0  0
 26 28  1  0  0  0
 28 29  2  0  0  0
  7 13  1  0  0  0
 13 14  2  0  0  0
 14 15  1  0  0  0
 15 16  2  0  0  0
 16 17  1  0  0  0
 17 18  2  0  0  0
 16 19  1  0  0  0
 19 20  2  0  0  0
 19 21  1  0  0  0
 21  4  1  0  0  0
 12  7  1  0  0  0
 29 23  1  0  0  0
 18 13  1  0  0  0
 21 22  1  0  0  0
M  END
> <minimizedAffinity>
3.77318

> <CNNscore>
0.4335227907

> <CNNaffinity>
5.1341772079

> <CNN_VS>
2.2257828712

> <CNNaffinity_variance>
0.6943036914

$$$$
[H]c1c([H])c2c([H])c([H])c1C(=O)N([H])N(C(=O)C([H])([H])[H])C([H])([H])C([H])([H])C21C([H])([H])C([H])([H])N(c2c([H])c([H])c(C([H])([H])[H])c([H])c2[H])C([H])([H])C1([H])[H]


 29 32  0  0  0  0  0  0  0  0999 V2000
   53.4796   -3.5075   -8.4435 C   0  0  0  0  0  0  0  0  0  0  0  0
   54.6713   -4.2194   -7.8752 C   0  0  0  0  0  0  0  0  0  0  0  0
   54.6601   -4.6784   -6.4472 O   0  0  0  0  0  0  0  0  0  0  0  0
   55.8742   -4.4724   -8.7349 N   0  0  0  0  0  0  0  0  0  0  0  0
   56.8941   -5.1936   -7.9043 C   0  0  0  0  0  0  0  0  0  0  0  0
   58.2678   -5.7955   -7.9224 C   0  0  0  0  0  0  0  0  0  0  0  0
   59.4708   -6.0486   -8.7821 C   0  0  0  0  0  0  0  0  0  0  0  0
   60.7890   -6.4366   -9.3834 C   0  0  0  0  0  0  0  0  0  0  0  0
   61.8089   -7.1577   -8.5528 C   0  0  0  0  0  0  0  0  0  0  0  0
   61.5106   -7.4908   -7.1211 N   0  0  0  0  0  0  0  0  0  0  0  0
   60.1923   -7.1028   -6.5198 C   0  0  0  0  0  0  0  0  0  0  0  0
   59.1724   -6.3817   -7.3503 C   0  0  0  0  0  0  0  0  0  0  0  0
   60.0432   -5.8559  -10.1551 C   0  0  0  0  0  0  0  0  0  0  0  0
   59.7667   -5.2911  -11.5169 C   0  0  0  0  0  0  0  0  0  0  0  0
   58.7469   -4.5700  -12.3474 C   0  0  0  0  0  0  0  0  0  0  0  0
   57.3731   -3.9680  -12.3293 C   0  0  0  0  0  0  0  0  0  0  0  0
   57.6496   -4.5327  -10.9675 C   0  0  0  0  0  0  0  0  0  0  0  0
   58.6695   -5.2538  -10.1370 C   0  0  0  0  0  0  0  0  0  0  0  0
   56.1702   -3.7150  -11.4697 C   0  0  0  0  0  0  0  0  0  0  0  0
   55.1503   -2.9938  -12.3003 O   0  0  0  0  0  0  0  0  0  0  0  0
   55.5977   -3.9077  -10.0967 N   0  0  0  0  0  0  0  0  0  0  0  0
   54.2531   -3.2616  -10.2540 H   0  0  0  0  0  0  0  0  0  0  0  0
   62.5305   -8.2119   -6.2905 C   0  0  0  0  0  0  0  0  0  0  0  0
   62.0946   -9.0320   -5.1126 C   0  0  0  0  0  0  0  0  0  0  0  0
   63.1146   -9.7531   -4.2821 C   0  0  0  0  0  0  0  0  0  0  0  0
   64.5705   -9.6541   -4.6296 C   0  0  0  0  0  0  0  0  0  0  0  0
   65.5904  -10.3752   -3.7991 C   0  0  0  0  0  0  0  0  0  0  0  0
   65.0063   -8.8340   -5.8075 C   0  0  0  0  0  0  0  0  0  0  0  0
   63.9864   -8.1129   -6.6380 C   0  0  0  0  0  0  0  0  0  0  0  0
  1  2  1  0  0  0
  2  3  2  0  0  0
  2  4  1  0  0  0
  4  5  1  0  0  0
  5  6  1  0  0  0
  6  7  1  0  0  0
  7  8  1  0  0  0
  8  9  1  0  0  0
  9 10  1  0  0  0
 10 11  1  0  0  0
 11 12  1  0  0  0
 10 23  1  0  0  0
 23 24  2  0  0  0
 24 25  1  0  0  0
 25 26  2  0  0  0
 26 27  1  0  0  0
 26 28  1  0  0  0
 28 29  2  0  0  0
  7 13  1  0  0  0
 13 14  2  0  0  0
 14 15  1  0  0  0
 15 16  2  0  0  0
 16 17  1  0  0  0
 17 18  2  0  0  0
 16 19  1  0  0  0
 19 20  2  0  0  0
 19 21  1  0  0  0
 21  4  1  0  0  0
 12  7  1  0  0  0
 29 23  1  0  0  0
 18 13  1  0  0  0
 21 22  1  0  0  0
M  END
> <minimizedAffinity>
0.58217

> <CNNscore>
0.4202087820

> <CNNaffinity>
5.4913506508

> <CNN_VS>
2.3075137138

> <CNNaffinity_variance>
0.4181433320

$$$$
[H]c1c([H])c2c([H])c([H])c1C(=O)N([H])N(C(=O)C([H])([H])[H])C([H])([H])C([H])([H])C21C([H])([H])C([H])([H])N(c2c([H])c([H])c(C([H])([H])[H])c([H])c2[H])C([H])([H])C1([H])[H]


 29 32  0  0  0  0  0  0  0  0999 V2000
   57.8589   -4.2144  -10.6142 C   0  0  0  0  0  0  0  0  0  0  0  0
   56.8602   -4.6638   -9.5891 C   0  0  0  0  0  0  0  0  0  0  0  0
   55.4004   -4.3843   -9.7913 O   0  0  0  0  0  0  0  0  0  0  0  0
   57.3214   -5.3926   -8.3619 N   0  0  0  0  0  0  0  0  0  0  0  0
   56.1139   -5.7111   -7.5307 C   0  0  0  0  0  0  0  0  0  0  0  0
   55.6527   -6.3583   -6.2587 C   0  0  0  0  0  0  0  0  0  0  0  0
   56.1138   -7.0871   -5.0313 C   0  0  0  0  0  0  0  0  0  0  0  0
   56.2698   -7.8204   -3.7321 C   0  0  0  0  0  0  0  0  0  0  0  0
   55.0623   -8.1388   -2.9011 C   0  0  0  0  0  0  0  0  0  0  0  0
   53.6990   -7.7240   -3.3692 N   0  0  0  0  0  0  0  0  0  0  0  0
   53.5430   -6.9908   -4.6684 C   0  0  0  0  0  0  0  0  0  0  0  0
   54.7504   -6.6723   -5.4995 C   0  0  0  0  0  0  0  0  0  0  0  0
   57.3212   -7.6191   -4.3178 C   0  0  0  0  0  0  0  0  0  0  0  0
   58.8136   -7.7510   -4.3904 C   0  0  0  0  0  0  0  0  0  0  0  0
   60.0210   -7.4326   -5.2214 C   0  0  0  0  0  0  0  0  0  0  0  0
   60.4822   -6.7853   -6.4936 C   0  0  0  0  0  0  0  0  0  0  0  0
   58.9898   -6.6534   -6.4210 C   0  0  0  0  0  0  0  0  0  0  0  0
   57.7824   -6.9718   -5.5899 C   0  0  0  0  0  0  0  0  0  0  0  0
   60.0212   -6.0566   -7.7208 C   0  0  0  0  0  0  0  0  0  0  0  0
   61.2286   -5.7381   -8.5519 O   0  0  0  0  0  0  0  0  0  0  0  0
   58.8138   -5.5245   -8.4345 N   0  0  0  0  0  0  0  0  0  0  0  0
   59.4446   -4.9246   -9.6561 H   0  0  0  0  0  0  0  0  0  0  0  0
   52.4915   -8.0425   -2.5381 C   0  0  0  0  0  0  0  0  0  0  0  0
   51.7123   -9.2977   -2.7975 C   0  0  0  0  0  0  0  0  0  0  0  0
   50.5048   -9.6161   -1.9664 C   0  0  0  0  0  0  0  0  0  0  0  0
   50.0767   -8.6794   -0.8759 C   0  0  0  0  0  0  0  0  0  0  0  0
   48.8693   -8.9979   -0.0447 C   0  0  0  0  0  0  0  0  0  0  0  0
   50.8560   -7.4242   -0.6164 C   0  0  0  0  0  0  0  0  0  0  0  0
   52.0634   -7.1058   -1.4476 C   0  0  0  0  0  0  0  0  0  0  0  0
  1  2  1  0  0  0
  2  3  2  0  0  0
  2  4  1  0  0  0
  4  5  1  0  0  0
  5  6  1  0  0  0
  6  7  1  0  0  0
  7  8  1  0  0  0
  8  9  1  0  0  0
  9 10  1  0  0  0
 10 11  1  0  0  0
 11 12  1  0  0  0
 10 23  1  0  0  0
 23 24  2  0  0  0
 24 25  1  0  0  0
 25 26  2  0  0  0
 26 27  1  0  0  0
 26 28  1  0  0  0
 28 29  2  0  0  0
  7 13  1  0  0  0
 13 14  2  0  0  0
 14 15  1  0  0  0
 15 16  2  0  0  0
 16 17  1  0  0  0
 17 18  2  0  0  0
 16 19  1  0  0  0
 19 20  2  0  0  0
 19 21  1  0  0  0
 21  4  1  0  0  0
 12  7  1  0  0  0
 29 23  1  0  0  0
 18 13  1  0  0  0
 21 22  1  0  0  0
M  END
> <minimizedAffinity>
5.77895

> <CNNscore>
0.4160597920

> <CNNaffinity>
5.6864442825

> <CNN_VS>
2.3659007549

> <CNNaffinity_variance>
0.8670371771

$$$$
[H]c1c([H])c2c([H])c([H])c1C(=O)N([H])N(C(=O)C([H])([H])[H])C([H])([H])C([H])([H])C21C([H])([H])C([H])([H])N(c2c([H])c([H])c(C([H])([H])[H])c([H])c2[H])C([H])([H])C1([H])[H]


 29 32  0  0  0  0  0  0  0  0999 V2000
   49.2596   -3.7016   -6.3537 C   0  0  0  0  0  0  0  0  0  0  0  0
   50.3125   -4.4919   -5.6348 C   0  0  0  0  0  0  0  0  0  0  0  0
   49.9595   -5.2565   -4.3936 O   0  0  0  0  0  0  0  0  0  0  0  0
   51.7184   -4.5175   -6.1571 N   0  0  0  0  0  0  0  0  0  0  0  0
   52.5372   -5.3793   -5.2422 C   0  0  0  0  0  0  0  0  0  0  0  0
   53.9120   -5.9277   -4.9996 C   0  0  0  0  0  0  0  0  0  0  0  0
   55.3179   -5.9533   -5.5219 C   0  0  0  0  0  0  0  0  0  0  0  0
   56.7771   -6.1651   -5.7975 C   0  0  0  0  0  0  0  0  0  0  0  0
   57.5958   -7.0268   -4.8826 C   0  0  0  0  0  0  0  0  0  0  0  0
   56.9554   -7.6768   -3.6921 N   0  0  0  0  0  0  0  0  0  0  0  0
   55.4962   -7.4651   -3.4165 C   0  0  0  0  0  0  0  0  0  0  0  0
   54.6775   -6.6033   -4.3314 C   0  0  0  0  0  0  0  0  0  0  0  0
   56.2178   -5.4464   -6.6096 C   0  0  0  0  0  0  0  0  0  0  0  0
   56.2679   -4.6005   -7.8473 C   0  0  0  0  0  0  0  0  0  0  0  0
   55.4492   -3.7387   -8.7622 C   0  0  0  0  0  0  0  0  0  0  0  0
   54.0743   -3.1903   -9.0049 C   0  0  0  0  0  0  0  0  0  0  0  0
   54.0241   -4.0362   -7.7672 C   0  0  0  0  0  0  0  0  0  0  0  0
   54.8428   -4.8979   -6.8523 C   0  0  0  0  0  0  0  0  0  0  0  0
   52.6684   -3.1646   -8.4826 C   0  0  0  0  0  0  0  0  0  0  0  0
   51.8497   -2.3029   -9.3976 O   0  0  0  0  0  0  0  0  0  0  0  0
   51.7685   -3.6716   -7.3948 N   0  0  0  0  0  0  0  0  0  0  0  0
   50.4647   -3.0406   -7.7847 H   0  0  0  0  0  0  0  0  0  0  0  0
   57.7742   -8.5386   -2.7772 C   0  0  0  0  0  0  0  0  0  0  0  0
   59.1035   -9.0639   -3.2320 C   0  0  0  0  0  0  0  0  0  0  0  0
   59.9223   -9.9256   -2.3170 C   0  0  0  0  0  0  0  0  0  0  0  0
   59.4117  -10.2621   -0.9473 C   0  0  0  0  0  0  0  0  0  0  0  0
   60.2304  -11.1238   -0.0324 C   0  0  0  0  0  0  0  0  0  0  0  0
   58.0822   -9.7367   -0.4926 C   0  0  0  0  0  0  0  0  0  0  0  0
   57.2635   -8.8750   -1.4075 C   0  0  0  0  0  0  0  0  0  0  0  0
  1  2  1  0  0  0
  2  3  2  0  0  0
  2  4  1  0  0  0
  4  5  1  0  0  0
  5  6  1  0  0  0
  6  7  1  0  0  0
  7  8  1  0  0  0
  8  9  1  0  0  0
  9 10  1  0  0  0
 10 11  1  0  0  0
 11 12  1  0  0  0
 10 23  1  0  0  0
 23 24  2  0  0  0
 24 25  1  0  0  0
 25 26  2  0  0  0
 26 27  1  0  0  0
 26 28  1  0  0  0
 28 29  2  0  0  0
  7 13  1  0  0  0
 13 14  2  0  0  0
 14 15  1  0  0  0
 15 16  2  0  0  0
 16 17  1  0  0  0
 17 18  2  0  0  0
 16 19  1  0  0  0
 19 20  2  0  0  0
 19 21  1  0  0  0
 21  4  1  0  0  0
 12  7  1  0  0  0
 29 23  1  0  0  0
 18 13  1  0  0  0
 21 22  1  0  0  0
M  END
> <minimizedAffinity>
-8.90819

> <CNNscore>
0.4121918380

> <CNNaffinity>
6.6935181618

> <CNN_VS>
2.7590136528

> <CNNaffinity_variance>
0.4403518736

$$$$
[H]OC([H])([H])[C@@]1(O[H])C([H])([H])[C@@]2([H])O[C@]1(C([H])([H])[H])n1c3c([H])c([H])c([H])c([H])c3c3c4c(c5c6c([H])c([H])c([H])c([H])c6n2c5c31)C([H])([H])N([H])C4=O


 36 43  0  0  0  0  0  0  0  0999 V2000
   54.1094   -8.0663   -3.3258 C   0  0  0  0  0  0  0  0  0  0  0  0
   54.5924   -6.8049   -4.0353 C   0  0  0  0  0  0  0  0  0  0  0  0
   55.3418   -7.3852   -5.1024 O   0  0  0  0  0  0  0  0  0  0  0  0
   56.3259   -6.5429   -5.4806 C   0  0  0  0  0  0  0  0  0  0  0  0
   56.6259   -5.5999   -4.3477 C   0  0  0  0  0  0  0  0  0  0  0  0
   55.6249   -6.0509   -3.2982 C   0  0  0  0  0  0  0  0  0  0  0  0
   55.1633   -4.8846   -2.6926 O   0  0  0  0  0  0  0  0  0  0  0  0
   55.8186   -5.7521   -6.6032 N   0  0  0  0  0  0  0  0  0  0  0  0
   56.4462   -5.3698   -7.6986 C   0  0  0  0  0  0  0  0  0  0  0  0
   57.7337   -5.6055   -8.1237 C   0  0  0  0  0  0  0  0  0  0  0  0
   58.1501   -5.0763   -9.3429 C   0  0  0  0  0  0  0  0  0  0  0  0
   57.2845   -4.3154  -10.1331 C   0  0  0  0  0  0  0  0  0  0  0  0
   55.9936   -4.0753   -9.7133 C   0  0  0  0  0  0  0  0  0  0  0  0
   55.6042   -4.6078   -8.5063 C   0  0  0  0  0  0  0  0  0  0  0  0
   54.4268   -4.5460   -7.8425 C   0  0  0  0  0  0  0  0  0  0  0  0
   53.2018   -3.9295   -8.0893 C   0  0  0  0  0  0  0  0  0  0  0  0
   52.7875   -3.1245   -9.2411 C   0  0  0  0  0  0  0  0  0  0  0  0
   51.4345   -2.7294   -9.0124 N   0  0  0  0  0  0  0  0  0  0  0  0
   51.0206   -3.2743   -7.7422 C   0  0  0  0  0  0  0  0  0  0  0  0
   49.8697   -3.0534   -7.3353 O   0  0  0  0  0  0  0  0  0  0  0  0
   52.1460   -4.0096   -7.2062 C   0  0  0  0  0  0  0  0  0  0  0  0
   52.2962   -4.7329   -6.0170 C   0  0  0  0  0  0  0  0  0  0  0  0
   51.5150   -5.0103   -4.9407 C   0  0  0  0  0  0  0  0  0  0  0  0
   50.2265   -4.6515   -4.6221 C   0  0  0  0  0  0  0  0  0  0  0  0
   49.6707   -5.0715   -3.4065 C   0  0  0  0  0  0  0  0  0  0  0  0
   50.4263   -5.8309   -2.5623 C   0  0  0  0  0  0  0  0  0  0  0  0
   51.7386   -6.1888   -2.9003 C   0  0  0  0  0  0  0  0  0  0  0  0
   52.2848   -5.7854   -4.0811 C   0  0  0  0  0  0  0  0  0  0  0  0
   53.5141   -6.0029   -4.5860 N   0  0  0  0  0  0  0  0  0  0  0  0
   53.5166   -5.3415   -5.7858 C   0  0  0  0  0  0  0  0  0  0  0  0
   54.5559   -5.2479   -6.6768 C   0  0  0  0  0  0  0  0  0  0  0  0
   55.1341   -5.0681   -1.7119 H   0  0  0  0  0  0  0  0  0  0  0  0
   50.8231   -2.1357   -9.6576 H   0  0  0  0  0  0  0  0  0  0  0  0
   56.3936   -6.9211   -2.3357 C   0  0  0  0  0  0  0  0  0  0  0  0
   57.6551   -6.3033   -2.1587 O   0  0  0  0  0  0  0  0  0  0  0  0
   58.1371   -6.7848   -1.4127 H   0  0  0  0  0  0  0  0  0  0  0  0
  2  1  1  0  0  0
  2  3  1  0  0  0
  3  4  1  0  0  0
  4  5  1  0  0  0
  5  6  1  0  0  0
  6  7  1  0  0  0
  6 34  1  0  0  0
 34 35  1  0  0  0
  4  8  1  0  0  0
  8  9  1  0  0  0
  9 10  2  0  0  0
 10 11  1  0  0  0
 11 12  2  0  0  0
 12 13  1  0  0  0
 13 14  2  0  0  0
 14 15  1  0  0  0
 15 16  2  0  0  0
 16 17  1  0  0  0
 17 18  1  0  0  0
 18 19  1  0  0  0
 19 20  2  0  0  0
 19 21  1  0  0  0
 21 22  2  0  0  0
 22 23  1  0  0  0
 23 24  2  0  0  0
 24 25  1  0  0  0
 25 26  2  0  0  0
 26 27  1  0  0  0
 27 28  2  0  0  0
 28 29  1  0  0  0
 29 30  1  0  0  0
 30 31  2  0  0  0
  6  2  1  0  0  0
 31  8  1  0  0  0
 29  2  1  0  0  0
 14  9  1  0  0  0
 31 15  1  0  0  0
 21 16  1  0  0  0
 30 22  1  0  0  0
 28 23  1  0  0  0
  7 32  1  0  0  0
 35 36  1  0  0  0
 18 33  1  0  0  0
M  END
> <minimizedAffinity>
-12.94787

> <CNNscore>
0.6396803856

> <CNNaffinity>
6.7476487160

> <CNN_VS>
4.3163385391

> <CNNaffinity_variance>
0.0302749816

$$$$
[H]OC([H])([H])[C@@]1(O[H])C([H])([H])[C@@]2([H])O[C@]1(C([H])([H])[H])n1c3c([H])c([H])c([H])c([H])c3c3c4c(c5c6c([H])c([H])c([H])c([H])c6n2c5c31)C([H])([H])N([H])C4=O


 36 43  0  0  0  0  0  0  0  0999 V2000
   57.0087   -5.8901   -4.0947 C   0  0  0  0  0  0  0  0  0  0  0  0
   55.5941   -6.2198   -4.5618 C   0  0  0  0  0  0  0  0  0  0  0  0
   54.8347   -5.6282   -3.5081 O   0  0  0  0  0  0  0  0  0  0  0  0
   53.6634   -6.2830   -3.3656 C   0  0  0  0  0  0  0  0  0  0  0  0
   53.8012   -7.6649   -3.9437 C   0  0  0  0  0  0  0  0  0  0  0  0
   55.2337   -7.6463   -4.4479 C   0  0  0  0  0  0  0  0  0  0  0  0
   55.2153   -8.3336   -5.6592 O   0  0  0  0  0  0  0  0  0  0  0  0
   52.6603   -5.5632   -4.1521 N   0  0  0  0  0  0  0  0  0  0  0  0
   51.3995   -5.3116   -3.8570 C   0  0  0  0  0  0  0  0  0  0  0  0
   50.6603   -5.6232   -2.7388 C   0  0  0  0  0  0  0  0  0  0  0  0
   49.3246   -5.2325   -2.6814 C   0  0  0  0  0  0  0  0  0  0  0  0
   48.7308   -4.5341   -3.7361 C   0  0  0  0  0  0  0  0  0  0  0  0
   49.4654   -4.2187   -4.8591 C   0  0  0  0  0  0  0  0  0  0  0  0
   50.7823   -4.6145   -4.8938 C   0  0  0  0  0  0  0  0  0  0  0  0
   51.7370   -4.4545   -5.8391 C   0  0  0  0  0  0  0  0  0  0  0  0
   51.7647   -3.8744   -7.1057 C   0  0  0  0  0  0  0  0  0  0  0  0
   50.6919   -3.1920   -7.8336 C   0  0  0  0  0  0  0  0  0  0  0  0
   51.2336   -2.7767   -9.0879 N   0  0  0  0  0  0  0  0  0  0  0  0
   52.6127   -3.1978   -9.1380 C   0  0  0  0  0  0  0  0  0  0  0  0
   53.2867   -2.9427  -10.1479 O   0  0  0  0  0  0  0  0  0  0  0  0
   52.8984   -3.8732   -7.8904 C   0  0  0  0  0  0  0  0  0  0  0  0
   54.0692   -4.4714   -7.4098 C   0  0  0  0  0  0  0  0  0  0  0  0
   55.3265   -4.6709   -7.8844 C   0  0  0  0  0  0  0  0  0  0  0  0
   55.9229   -4.3385   -9.0779 C   0  0  0  0  0  0  0  0  0  0  0  0
   57.2571   -4.6978   -9.3095 C   0  0  0  0  0  0  0  0  0  0  0  0
   57.9369   -5.3737   -8.3394 C   0  0  0  0  0  0  0  0  0  0  0  0
   57.3159   -5.7061   -7.1277 C   0  0  0  0  0  0  0  0  0  0  0  0
   56.0195   -5.3586   -6.8950 C   0  0  0  0  0  0  0  0  0  0  0  0
   55.2400   -5.5898   -5.8216 N   0  0  0  0  0  0  0  0  0  0  0  0
   54.0283   -5.0415   -6.1502 C   0  0  0  0  0  0  0  0  0  0  0  0
   52.8888   -5.0340   -5.3857 C   0  0  0  0  0  0  0  0  0  0  0  0
   56.0191   -8.9253   -5.6606 H   0  0  0  0  0  0  0  0  0  0  0  0
   50.7217   -2.2472   -9.8625 H   0  0  0  0  0  0  0  0  0  0  0  0
   56.0525   -8.3635   -3.4040 C   0  0  0  0  0  0  0  0  0  0  0  0
   55.2388   -8.4510   -2.2487 O   0  0  0  0  0  0  0  0  0  0  0  0
   55.7057   -9.0495   -1.5820 H   0  0  0  0  0  0  0  0  0  0  0  0
  2  1  1  0  0  0
  2  3  1  0  0  0
  3  4  1  0  0  0
  4  5  1  0  0  0
  5  6  1  0  0  0
  6  7  1  0  0  0
  6 34  1  0  0  0
 34 35  1  0  0  0
  4  8  1  0  0  0
  8  9  1  0  0  0
  9 10  2  0  0  0
 10 11  1  0  0  0
 11 12  2  0  0  0
 12 13  1  0  0  0
 13 14  2  0  0  0
 14 15  1  0  0  0
 15 16  2  0  0  0
 16 17  1  0  0  0
 17 18  1  0  0  0
 18 19  1  0  0  0
 19 20  2  0  0  0
 19 21  1  0  0  0
 21 22  2  0  0  0
 22 23  1  0  0  0
 23 24  2  0  0  0
 24 25  1  0  0  0
 25 26  2  0  0  0
 26 27  1  0  0  0
 27 28  2  0  0  0
 28 29  1  0  0  0
 29 30  1  0  0  0
 30 31  2  0  0  0
  6  2  1  0  0  0
 31  8  1  0  0  0
 29  2  1  0  0  0
 14  9  1  0  0  0
 31 15  1  0  0  0
 21 16  1  0  0  0
 30 22  1  0  0  0
 28 23  1  0  0  0
  7 32  1  0  0  0
 35 36  1  0  0  0
 18 33  1  0  0  0
M  END
> <minimizedAffinity>
-10.32813

> <CNNscore>
0.5969967246

> <CNNaffinity>
6.8751206398

> <CNN_VS>
4.1044244766

> <CNNaffinity_variance>
0.1215175614

$$$$
[H]OC([H])([H])[C@@]1(O[H])C([H])([H])[C@@]2([H])O[C@]1(C([H])([H])[H])n1c3c([H])c([H])c([H])c([H])c3c3c4c(c5c6c([H])c([H])c([H])c([H])c6n2c5c31)C([H])([H])N([H])C4=O


 36 43  0  0  0  0  0  0  0  0999 V2000
   57.0649   -5.5826  -12.3485 C   0  0  0  0  0  0  0  0  0  0  0  0
   56.5545   -4.7157  -11.2014 C   0  0  0  0  0  0  0  0  0  0  0  0
   55.1602   -5.0152  -11.2582 O   0  0  0  0  0  0  0  0  0  0  0  0
   54.4485   -3.9677  -10.7919 C   0  0  0  0  0  0  0  0  0  0  0  0
   55.2835   -2.7212  -10.8997 C   0  0  0  0  0  0  0  0  0  0  0  0
   56.5776   -3.2664  -11.4784 C   0  0  0  0  0  0  0  0  0  0  0  0
   57.5995   -2.5735  -10.8338 O   0  0  0  0  0  0  0  0  0  0  0  0
   54.1860   -4.2132   -9.3728 N   0  0  0  0  0  0  0  0  0  0  0  0
   53.0899   -3.9742   -8.6789 C   0  0  0  0  0  0  0  0  0  0  0  0
   51.8780   -3.4509   -9.0679 C   0  0  0  0  0  0  0  0  0  0  0  0
   50.8706   -3.3013   -8.1178 C   0  0  0  0  0  0  0  0  0  0  0  0
   51.0733   -3.6726   -6.7860 C   0  0  0  0  0  0  0  0  0  0  0  0
   52.2847   -4.1973   -6.3895 C   0  0  0  0  0  0  0  0  0  0  0  0
   53.2648   -4.3361   -7.3446 C   0  0  0  0  0  0  0  0  0  0  0  0
   54.5297   -4.8096   -7.2624 C   0  0  0  0  0  0  0  0  0  0  0  0
   55.3191   -5.3012   -6.2248 C   0  0  0  0  0  0  0  0  0  0  0  0
   54.9778   -5.4879   -4.8123 C   0  0  0  0  0  0  0  0  0  0  0  0
   56.1337   -6.0253   -4.1685 N   0  0  0  0  0  0  0  0  0  0  0  0
   57.1716   -6.1638   -5.1611 C   0  0  0  0  0  0  0  0  0  0  0  0
   58.2766   -6.6146   -4.8220 O   0  0  0  0  0  0  0  0  0  0  0  0
   56.6234   -5.7038   -6.4189 C   0  0  0  0  0  0  0  0  0  0  0  0
   57.1862   -5.6217   -7.6981 C   0  0  0  0  0  0  0  0  0  0  0  0
   58.3965   -5.8999   -8.2492 C   0  0  0  0  0  0  0  0  0  0  0  0
   59.5642   -6.3843   -7.7085 C   0  0  0  0  0  0  0  0  0  0  0  0
   60.6883   -6.5549   -8.5271 C   0  0  0  0  0  0  0  0  0  0  0  0
   60.5971   -6.2336   -9.8495 C   0  0  0  0  0  0  0  0  0  0  0  0
   59.4002   -5.7406  -10.3868 C   0  0  0  0  0  0  0  0  0  0  0  0
   58.3029   -5.5736   -9.5972 C   0  0  0  0  0  0  0  0  0  0  0  0
   57.0776   -5.1072   -9.9043 N   0  0  0  0  0  0  0  0  0  0  0  0
   56.3908   -5.1340   -8.7192 C   0  0  0  0  0  0  0  0  0  0  0  0
   55.0952   -4.7363   -8.5045 C   0  0  0  0  0  0  0  0  0  0  0  0
   58.2670   -2.3361  -11.5368 H   0  0  0  0  0  0  0  0  0  0  0  0
   56.2291   -6.2842   -3.1359 H   0  0  0  0  0  0  0  0  0  0  0  0
   56.5340   -2.9636  -12.9552 C   0  0  0  0  0  0  0  0  0  0  0  0
   57.8518   -3.1457  -13.4395 O   0  0  0  0  0  0  0  0  0  0  0  0
   57.8251   -3.0886  -14.4478 H   0  0  0  0  0  0  0  0  0  0  0  0
  2  1  1  0  0  0
  2  3  1  0  0  0
  3  4  1  0  0  0
  4  5  1  0  0  0
  5  6  1  0  0  0
  6  7  1  0  0  0
  6 34  1  0  0  0
 34 35  1  0  0  0
  4  8  1  0  0  0
  8  9  1  0  0  0
  9 10  2  0  0  0
 10 11  1  0  0  0
 11 12  2  0  0  0
 12 13  1  0  0  0
 13 14  2  0  0  0
 14 15  1  0  0  0
 15 16  2  0  0  0
 16 17  1  0  0  0
 17 18  1  0  0  0
 18 19  1  0  0  0
 19 20  2  0  0  0
 19 21  1  0  0  0
 21 22  2  0  0  0
 22 23  1  0  0  0
 23 24  2  0  0  0
 24 25  1  0  0  0
 25 26  2  0  0  0
 26 27  1  0  0  0
 27 28  2  0  0  0
 28 29  1  0  0  0
 29 30  1  0  0  0
 30 31  2  0  0  0
  6  2  1  0  0  0
 31  8  1  0  0  0
 29  2  1  0  0  0
 14  9  1  0  0  0
 31 15  1  0  0  0
 21 16  1  0  0  0
 30 22  1  0  0  0
 28 23  1  0  0  0
  7 32  1  0  0  0
 35 36  1  0  0  0
 18 33  1  0  0  0
M  END
> <minimizedAffinity>
0.73463

> <CNNscore>
0.4620783627

> <CNNaffinity>
6.2907977104

> <CNN_VS>
2.9068415165

> <CNNaffinity_variance>
0.3405265212

$$$$
[H]OC([H])([H])[C@@]1(O[H])C([H])([H])[C@@]2([H])O[C@]1(C([H])([H])[H])n1c3c([H])c([H])c([H])c([H])c3c3c4c(c5c6c([H])c([H])c([H])c([H])c6n2c5c31)C([H])([H])N([H])C4=O


 36 43  0  0  0  0  0  0  0  0999 V2000
   61.7904   -2.3331  -15.4986 C   0  0  0  0  0  0  0  0  0  0  0  0
   61.7941   -3.7400  -14.9082 C   0  0  0  0  0  0  0  0  0  0  0  0
   62.9981   -3.6910  -14.1434 O   0  0  0  0  0  0  0  0  0  0  0  0
   63.5236   -4.9295  -14.0386 C   0  0  0  0  0  0  0  0  0  0  0  0
   63.0010   -5.7802  -15.1637 C   0  0  0  0  0  0  0  0  0  0  0  0
   62.0837   -4.8078  -15.8847 C   0  0  0  0  0  0  0  0  0  0  0  0
   60.9718   -5.5536  -16.2686 O   0  0  0  0  0  0  0  0  0  0  0  0
   63.0453   -5.5035  -12.7797 N   0  0  0  0  0  0  0  0  0  0  0  0
   63.6979   -6.2460  -11.9062 C   0  0  0  0  0  0  0  0  0  0  0  0
   65.0023   -6.6843  -11.8984 C   0  0  0  0  0  0  0  0  0  0  0  0
   65.4446   -7.4700  -10.8367 C   0  0  0  0  0  0  0  0  0  0  0  0
   64.5876   -7.8159   -9.7886 C   0  0  0  0  0  0  0  0  0  0  0  0
   63.2798   -7.3803   -9.7902 C   0  0  0  0  0  0  0  0  0  0  0  0
   62.8651   -6.6056  -10.8484 C   0  0  0  0  0  0  0  0  0  0  0  0
   61.6668   -6.0412  -11.1250 C   0  0  0  0  0  0  0  0  0  0  0  0
   60.4248   -6.0361  -10.4936 C   0  0  0  0  0  0  0  0  0  0  0  0
   60.0254   -6.6690   -9.2341 C   0  0  0  0  0  0  0  0  0  0  0  0
   58.6465   -6.3604   -9.0277 N   0  0  0  0  0  0  0  0  0  0  0  0
   58.1994   -5.5568  -10.1395 C   0  0  0  0  0  0  0  0  0  0  0  0
   57.0207   -5.1711  -10.1717 O   0  0  0  0  0  0  0  0  0  0  0  0
   59.3327   -5.3811  -11.0221 C   0  0  0  0  0  0  0  0  0  0  0  0
   59.4628   -4.6928  -12.2342 C   0  0  0  0  0  0  0  0  0  0  0  0
   58.6380   -3.9726  -13.0385 C   0  0  0  0  0  0  0  0  0  0  0  0
   57.3044   -3.6529  -12.9388 C   0  0  0  0  0  0  0  0  0  0  0  0
   56.6954   -2.8984  -13.9501 C   0  0  0  0  0  0  0  0  0  0  0  0
   57.4446   -2.4969  -15.0167 C   0  0  0  0  0  0  0  0  0  0  0  0
   58.8030   -2.8305  -15.1050 C   0  0  0  0  0  0  0  0  0  0  0  0
   59.4022   -3.5624  -14.1247 C   0  0  0  0  0  0  0  0  0  0  0  0
   60.6723   -3.9978  -14.0224 N   0  0  0  0  0  0  0  0  0  0  0  0
   60.7018   -4.7042  -12.8490 C   0  0  0  0  0  0  0  0  0  0  0  0
   61.7759   -5.3642  -12.3073 C   0  0  0  0  0  0  0  0  0  0  0  0
   60.7551   -5.2771  -17.2029 H   0  0  0  0  0  0  0  0  0  0  0  0
   58.0394   -6.6631   -8.2017 H   0  0  0  0  0  0  0  0  0  0  0  0
   62.8629   -4.3028  -17.0732 C   0  0  0  0  0  0  0  0  0  0  0  0
   63.7407   -5.3481  -17.4489 O   0  0  0  0  0  0  0  0  0  0  0  0
   64.1727   -5.0936  -18.3259 H   0  0  0  0  0  0  0  0  0  0  0  0
  2  1  1  0  0  0
  2  3  1  0  0  0
  3  4  1  0  0  0
  4  5  1  0  0  0
  5  6  1  0  0  0
  6  7  1  0  0  0
  6 34  1  0  0  0
 34 35  1  0  0  0
  4  8  1  0  0  0
  8  9  1  0  0  0
  9 10  2  0  0  0
 10 11  1  0  0  0
 11 12  2  0  0  0
 12 13  1  0  0  0
 13 14  2  0  0  0
 14 15  1  0  0  0
 15 16  2  0  0  0
 16 17  1  0  0  0
 17 18  1  0  0  0
 18 19  1  0  0  0
 19 20  2  0  0  0
 19 21  1  0  0  0
 21 22  2  0  0  0
 22 23  1  0  0  0
 23 24  2  0  0  0
 24 25  1  0  0  0
 25 26  2  0  0  0
 26 27  1  0  0  0
 27 28  2  0  0  0
 28 29  1  0  0  0
 29 30  1  0  0  0
 30 31  2  0  0  0
  6  2  1  0  0  0
 31  8  1  0  0  0
 29  2  1  0  0  0
 14  9  1  0  0  0
 31 15  1  0  0  0
 21 16  1  0  0  0
 30 22  1  0  0  0
 28 23  1  0  0  0
  7 32  1  0  0  0
 35 36  1  0  0  0
 18 33  1  0  0  0
M  END
> <minimizedAffinity>
3.07168

> <CNNscore>
0.4136690795

> <CNNaffinity>
4.6110816002

> <CNN_VS>
1.9074618816

> <CNNaffinity_variance>
0.1367886513

$$$$
[H]OC([H])([H])[C@@]1(O[H])C([H])([H])[C@@]2([H])O[C@]1(C([H])([H])[H])n1c3c([H])c([H])c([H])c([H])c3c3c4c(c5c6c([H])c([H])c([H])c([H])c6n2c5c31)C([H])([H])N([H])C4=O


 36 43  0  0  0  0  0  0  0  0999 V2000
   52.9704   -4.2567  -10.6817 C   0  0  0  0  0  0  0  0  0  0  0  0
   53.9509   -4.0050   -9.5401 C   0  0  0  0  0  0  0  0  0  0  0  0
   53.5043   -4.9835   -8.6019 O   0  0  0  0  0  0  0  0  0  0  0  0
   53.7791   -4.5717   -7.3465 C   0  0  0  0  0  0  0  0  0  0  0  0
   53.9340   -3.0755   -7.3445 C   0  0  0  0  0  0  0  0  0  0  0  0
   53.7234   -2.7421   -8.8113 C   0  0  0  0  0  0  0  0  0  0  0  0
   54.6405   -1.7356   -9.1039 O   0  0  0  0  0  0  0  0  0  0  0  0
   55.0646   -5.1585   -6.9642 N   0  0  0  0  0  0  0  0  0  0  0  0
   55.4338   -5.6608   -5.8017 C   0  0  0  0  0  0  0  0  0  0  0  0
   54.7369   -5.8025   -4.6235 C   0  0  0  0  0  0  0  0  0  0  0  0
   55.3748   -6.3760   -3.5262 C   0  0  0  0  0  0  0  0  0  0  0  0
   56.7021   -6.8055   -3.6059 C   0  0  0  0  0  0  0  0  0  0  0  0
   57.4060   -6.6665   -4.7828 C   0  0  0  0  0  0  0  0  0  0  0  0
   56.7561   -6.0977   -5.8533 C   0  0  0  0  0  0  0  0  0  0  0  0
   57.1740   -5.8338   -7.1129 C   0  0  0  0  0  0  0  0  0  0  0  0
   58.3781   -6.0014   -7.7937 C   0  0  0  0  0  0  0  0  0  0  0  0
   59.6368   -6.5801   -7.3170 C   0  0  0  0  0  0  0  0  0  0  0  0
   60.5627   -6.5236   -8.4027 N   0  0  0  0  0  0  0  0  0  0  0  0
   59.8927   -5.9175   -9.5276 C   0  0  0  0  0  0  0  0  0  0  0  0
   60.5137   -5.7638  -10.5905 O   0  0  0  0  0  0  0  0  0  0  0  0
   58.5429   -5.6103   -9.1055 C   0  0  0  0  0  0  0  0  0  0  0  0
   57.4712   -5.0239   -9.7891 C   0  0  0  0  0  0  0  0  0  0  0  0
   57.2699   -4.5180  -11.0338 C   0  0  0  0  0  0  0  0  0  0  0  0
   58.1012   -4.3935  -12.1220 C   0  0  0  0  0  0  0  0  0  0  0  0
   57.6215   -3.7981  -13.2959 C   0  0  0  0  0  0  0  0  0  0  0  0
   56.3329   -3.3527  -13.3315 C   0  0  0  0  0  0  0  0  0  0  0  0
   55.4969   -3.4860  -12.2144 C   0  0  0  0  0  0  0  0  0  0  0  0
   55.9561   -4.0652  -11.0703 C   0  0  0  0  0  0  0  0  0  0  0  0
   55.3329   -4.2753   -9.8952 N   0  0  0  0  0  0  0  0  0  0  0  0
   56.2812   -4.8655   -9.1020 C   0  0  0  0  0  0  0  0  0  0  0  0
   56.1384   -5.2596   -7.7954 C   0  0  0  0  0  0  0  0  0  0  0  0
   54.1548   -1.0636   -9.6595 H   0  0  0  0  0  0  0  0  0  0  0  0
   61.5755   -6.8653   -8.3988 H   0  0  0  0  0  0  0  0  0  0  0  0
   52.2991   -2.2601   -8.9289 C   0  0  0  0  0  0  0  0  0  0  0  0
   51.6268   -2.7135   -7.7684 O   0  0  0  0  0  0  0  0  0  0  0  0
   50.7113   -2.2867   -7.7506 H   0  0  0  0  0  0  0  0  0  0  0  0
  2  1  1  0  0  0
  2  3  1  0  0  0
  3  4  1  0  0  0
  4  5  1  0  0  0
  5  6  1  0  0  0
  6  7  1  0  0  0
  6 34  1  0  0  0
 34 35  1  0  0  0
  4  8  1  0  0  0
  8  9  1  0  0  0
  9 10  2  0  0  0
 10 11  1  0  0  0
 11 12  2  0  0  0
 12 13  1  0  0  0
 13 14  2  0  0  0
 14 15  1  0  0  0
 15 16  2  0  0  0
 16 17  1  0  0  0
 17 18  1  0  0  0
 18 19  1  0  0  0
 19 20  2  0  0  0
 19 21  1  0  0  0
 21 22  2  0  0  0
 22 23  1  0  0  0
 23 24  2  0  0  0
 24 25  1  0  0  0
 25 26  2  0  0  0
 26 27  1  0  0  0
 27 28  2  0  0  0
 28 29  1  0  0  0
 29 30  1  0  0  0
 30 31  2  0  0  0
  6  2  1  0  0  0
 31  8  1  0  0  0
 29  2  1  0  0  0
 14  9  1  0  0  0
 31 15  1  0  0  0
 21 16  1  0  0  0
 30 22  1  0  0  0
 28 23  1  0  0  0
  7 32  1  0  0  0
 35 36  1  0  0  0
 18 33  1  0  0  0
M  END
> <minimizedAffinity>
-4.02499

> <CNNscore>
0.3785289228

> <CNNaffinity>
5.9931364059

> <CNN_VS>
2.2685754299

> <CNNaffinity_variance>
0.1478885710

$$$$
[H]OC([H])([H])[C@@]1(O[H])C([H])([H])[C@@]2([H])O[C@]1(C([H])([H])[H])n1c3c([H])c([H])c([H])c([H])c3c3c4c(c5c6c([H])c([H])c([H])c([H])c6n2c5c31)C([H])([H])N([H])C4=O


 36 43  0  0  0  0  0  0  0  0999 V2000
   64.2226   -7.2515   -9.9456 C   0  0  0  0  0  0  0  0  0  0  0  0
   63.7147   -8.4455   -9.1428 C   0  0  0  0  0  0  0  0  0  0  0  0
   64.8498   -8.6954   -8.3145 O   0  0  0  0  0  0  0  0  0  0  0  0
   64.8931  -10.0023   -7.9808 C   0  0  0  0  0  0  0  0  0  0  0  0
   64.1076  -10.7922   -8.9916 C   0  0  0  0  0  0  0  0  0  0  0  0
   63.6076   -9.6970   -9.9174 C   0  0  0  0  0  0  0  0  0  0  0  0
   62.3046  -10.0551  -10.2548 O   0  0  0  0  0  0  0  0  0  0  0  0
   64.2308  -10.1454   -6.6832 N   0  0  0  0  0  0  0  0  0  0  0  0
   64.5654  -10.9095   -5.6613 C   0  0  0  0  0  0  0  0  0  0  0  0
   65.6243  -11.7727   -5.4954 C   0  0  0  0  0  0  0  0  0  0  0  0
   65.7458  -12.4700   -4.2957 C   0  0  0  0  0  0  0  0  0  0  0  0
   64.8139  -12.3055   -3.2675 C   0  0  0  0  0  0  0  0  0  0  0  0
   63.7509  -11.4426   -3.4271 C   0  0  0  0  0  0  0  0  0  0  0  0
   63.6511  -10.7647   -4.6198 C   0  0  0  0  0  0  0  0  0  0  0  0
   62.7387   -9.8691   -5.0630 C   0  0  0  0  0  0  0  0  0  0  0  0
   61.5772   -9.3170   -4.5269 C   0  0  0  0  0  0  0  0  0  0  0  0
   60.9672   -9.5422   -3.2140 C   0  0  0  0  0  0  0  0  0  0  0  0
   59.7905   -8.7353   -3.1536 N   0  0  0  0  0  0  0  0  0  0  0  0
   59.6713   -8.0285   -4.4058 C   0  0  0  0  0  0  0  0  0  0  0  0
   58.7109   -7.2624   -4.5789 O   0  0  0  0  0  0  0  0  0  0  0  0
   60.7984   -8.4189   -5.2253 C   0  0  0  0  0  0  0  0  0  0  0  0
   61.1768   -8.0394   -6.5186 C   0  0  0  0  0  0  0  0  0  0  0  0
   60.6729   -7.2230   -7.4806 C   0  0  0  0  0  0  0  0  0  0  0  0
   59.5433   -6.4403   -7.5241 C   0  0  0  0  0  0  0  0  0  0  0  0
   59.2545   -5.7041   -8.6806 C   0  0  0  0  0  0  0  0  0  0  0  0
   60.1061   -5.7825   -9.7430 C   0  0  0  0  0  0  0  0  0  0  0  0
   61.2537   -6.5848   -9.6846 C   0  0  0  0  0  0  0  0  0  0  0  0
   61.5416   -7.3020   -8.5628 C   0  0  0  0  0  0  0  0  0  0  0  0
   62.5688   -8.1341   -8.3066 N   0  0  0  0  0  0  0  0  0  0  0  0
   62.3331   -8.5933   -7.0376 C   0  0  0  0  0  0  0  0  0  0  0  0
   63.0932   -9.4875   -6.3266 C   0  0  0  0  0  0  0  0  0  0  0  0
   62.2091   -9.8841  -11.2335 H   0  0  0  0  0  0  0  0  0  0  0  0
   59.1089   -8.6576   -2.3340 H   0  0  0  0  0  0  0  0  0  0  0  0
   64.5253   -9.7116  -11.1142 C   0  0  0  0  0  0  0  0  0  0  0  0
   65.7516  -10.2629  -10.6706 O   0  0  0  0  0  0  0  0  0  0  0  0
   66.3363  -10.4165  -11.4801 H   0  0  0  0  0  0  0  0  0  0  0  0
  2  1  1  0  0  0
  2  3  1  0  0  0
  3  4  1  0  0  0
  4  5  1  0  0  0
  5  6  1  0  0  0
  6  7  1  0  0  0
  6 34  1  0  0  0
 34 35  1  0  0  0
  4  8  1  0  0  0
  8  9  1  0  0  0
  9 10  2  0  0  0
 10 11  1  0  0  0
 11 12  2  0  0  0
 12 13  1  0  0  0
 13 14  2  0  0  0
 14 15  1  0  0  0
 15 16  2  0  0  0
 16 17  1  0  0  0
 17 18  1  0  0  0
 18 19  1  0  0  0
 19 20  2  0  0  0
 19 21  1  0  0  0
 21 22  2  0  0  0
 22 23  1  0  0  0
 23 24  2  0  0  0
 24 25  1  0  0  0
 25 26  2  0  0  0
 26 27  1  0  0  0
 27 28  2  0  0  0
 28 29  1  0  0  0
 29 30  1  0  0  0
 30 31  2  0  0  0
  6  2  1  0  0  0
 31  8  1  0  0  0
 29  2  1  0  0  0
 14  9  1  0  0  0
 31 15  1  0  0  0
 21 16  1  0  0  0
 30 22  1  0  0  0
 28 23  1  0  0  0
  7 32  1  0  0  0
 35 36  1  0  0  0
 18 33  1  0  0  0
M  END
> <minimizedAffinity>
-1.13100

> <CNNscore>
0.2873511910

> <CNNaffinity>
4.6304717064

> <CNN_VS>
1.3305715322

> <CNNaffinity_variance>
0.3212337494

$$$$
[H]OC([H])([H])[C@@]1(O[H])C([H])([H])[C@@]2([H])O[C@]1(C([H])([H])[H])n1c3c([H])c([H])c([H])c([H])c3c3c4c(c5c6c([H])c([H])c([H])c([H])c6n2c5c31)C([H])([H])N([H])C4=O


 36 43  0  0  0  0  0  0  0  0999 V2000
   54.5083   -2.3743   -8.2175 C   0  0  0  0  0  0  0  0  0  0  0  0
   54.4892   -3.8142   -7.7132 C   0  0  0  0  0  0  0  0  0  0  0  0
   55.6484   -3.8068   -6.8807 O   0  0  0  0  0  0  0  0  0  0  0  0
   56.1761   -5.0474   -6.8211 C   0  0  0  0  0  0  0  0  0  0  0  0
   55.7230   -5.8307   -8.0226 C   0  0  0  0  0  0  0  0  0  0  0  0
   54.8403   -4.8202   -8.7342 C   0  0  0  0  0  0  0  0  0  0  0  0
   53.7568   -5.5457   -9.2237 O   0  0  0  0  0  0  0  0  0  0  0  0
   55.6327   -5.6979   -5.6276 N   0  0  0  0  0  0  0  0  0  0  0  0
   56.2410   -6.4892   -4.7650 C   0  0  0  0  0  0  0  0  0  0  0  0
   57.5461   -6.9222   -4.7105 C   0  0  0  0  0  0  0  0  0  0  0  0
   57.9342   -7.7688   -3.6747 C   0  0  0  0  0  0  0  0  0  0  0  0
   57.0228   -8.1804   -2.6987 C   0  0  0  0  0  0  0  0  0  0  0  0
   55.7140   -7.7505   -2.7474 C   0  0  0  0  0  0  0  0  0  0  0  0
   55.3532   -6.9151   -3.7789 C   0  0  0  0  0  0  0  0  0  0  0  0
   54.1682   -6.3395   -4.0877 C   0  0  0  0  0  0  0  0  0  0  0  0
   52.8930   -6.3772   -3.5276 C   0  0  0  0  0  0  0  0  0  0  0  0
   52.4287   -7.0863   -2.3326 C   0  0  0  0  0  0  0  0  0  0  0  0
   51.0383   -6.7959   -2.1855 N   0  0  0  0  0  0  0  0  0  0  0  0
   50.6480   -5.9285   -3.2705 C   0  0  0  0  0  0  0  0  0  0  0  0
   49.4702   -5.5461   -3.3454 O   0  0  0  0  0  0  0  0  0  0  0  0
   51.8273   -5.6957   -4.0763 C   0  0  0  0  0  0  0  0  0  0  0  0
   52.0197   -4.9351   -5.2357 C   0  0  0  0  0  0  0  0  0  0  0  0
   51.2358   -4.1710   -6.0403 C   0  0  0  0  0  0  0  0  0  0  0  0
   49.8965   -3.8629   -5.9964 C   0  0  0  0  0  0  0  0  0  0  0  0
   49.3392   -3.0512   -6.9932 C   0  0  0  0  0  0  0  0  0  0  0  0
   50.1438   -2.5834   -7.9902 C   0  0  0  0  0  0  0  0  0  0  0  0
   51.5073   -2.9059   -8.0222 C   0  0  0  0  0  0  0  0  0  0  0  0
   52.0562   -3.6932   -7.0556 C   0  0  0  0  0  0  0  0  0  0  0  0
   53.3218   -4.1291   -6.9086 N   0  0  0  0  0  0  0  0  0  0  0  0
   53.2910   -4.9048   -5.7798 C   0  0  0  0  0  0  0  0  0  0  0  0
   54.3380   -5.5922   -5.2194 C   0  0  0  0  0  0  0  0  0  0  0  0
   53.5904   -5.2143  -10.1504 H   0  0  0  0  0  0  0  0  0  0  0  0
   50.3884   -7.1501   -1.4145 H   0  0  0  0  0  0  0  0  0  0  0  0
   55.6808   -4.2416   -9.8448 C   0  0  0  0  0  0  0  0  0  0  0  0
   56.8672   -5.0126   -9.8912 O   0  0  0  0  0  0  0  0  0  0  0  0
   57.3852   -4.7402  -10.7148 H   0  0  0  0  0  0  0  0  0  0  0  0
  2  1  1  0  0  0
  2  3  1  0  0  0
  3  4  1  0  0  0
  4  5  1  0  0  0
  5  6  1  0  0  0
  6  7  1  0  0  0
  6 34  1  0  0  0
 34 35  1  0  0  0
  4  8  1  0  0  0
  8  9  1  0  0  0
  9 10  2  0  0  0
 10 11  1  0  0  0
 11 12  2  0  0  0
 12 13  1  0  0  0
 13 14  2  0  0  0
 14 15  1  0  0  0
 15 16  2  0  0  0
 16 17  1  0  0  0
 17 18  1  0  0  0
 18 19  1  0  0  0
 19 20  2  0  0  0
 19 21  1  0  0  0
 21 22  2  0  0  0
 22 23  1  0  0  0
 23 24  2  0  0  0
 24 25  1  0  0  0
 25 26  2  0  0  0
 26 27  1  0  0  0
 27 28  2  0  0  0
 28 29  1  0  0  0
 29 30  1  0  0  0
 30 31  2  0  0  0
  6  2  1  0  0  0
 31  8  1  0  0  0
 29  2  1  0  0  0
 14  9  1  0  0  0
 31 15  1  0  0  0
 21 16  1  0  0  0
 30 22  1  0  0  0
 28 23  1  0  0  0
  7 32  1  0  0  0
 35 36  1  0  0  0
 18 33  1  0  0  0
M  END
> <minimizedAffinity>
-7.89137

> <CNNscore>
0.2723185718

> <CNNaffinity>
6.5592637062

> <CNN_VS>
1.7862093449

> <CNNaffinity_variance>
0.2276988029

$$$$
[H]OC([H])([H])[C@@]1(O[H])C([H])([H])[C@@]2([H])O[C@]1(C([H])([H])[H])n1c3c([H])c([H])c([H])c([H])c3c3c4c(c5c6c([H])c([H])c([H])c([H])c6n2c5c31)C([H])([H])N([H])C4=O


 36 43  0  0  0  0  0  0  0  0999 V2000
   52.0036   -4.0645   -7.4431 C   0  0  0  0  0  0  0  0  0  0  0  0
   52.8713   -5.2249   -6.9651 C   0  0  0  0  0  0  0  0  0  0  0  0
   54.1665   -4.7279   -7.3003 O   0  0  0  0  0  0  0  0  0  0  0  0
   55.0029   -5.7588   -7.5425 C   0  0  0  0  0  0  0  0  0  0  0  0
   54.1921   -6.9724   -7.9065 C   0  0  0  0  0  0  0  0  0  0  0  0
   52.7741   -6.4394   -7.7979 C   0  0  0  0  0  0  0  0  0  0  0  0
   52.0276   -7.4687   -7.2293 O   0  0  0  0  0  0  0  0  0  0  0  0
   55.7137   -6.0487   -6.2961 N   0  0  0  0  0  0  0  0  0  0  0  0
   56.9793   -6.3767   -6.1204 C   0  0  0  0  0  0  0  0  0  0  0  0
   58.0020   -6.5257   -7.0290 C   0  0  0  0  0  0  0  0  0  0  0  0
   59.2670   -6.8847   -6.5695 C   0  0  0  0  0  0  0  0  0  0  0  0
   59.5084   -7.0938   -5.2091 C   0  0  0  0  0  0  0  0  0  0  0  0
   58.4885   -6.9463   -4.2936 C   0  0  0  0  0  0  0  0  0  0  0  0
   57.2479   -6.5912   -4.7699 C   0  0  0  0  0  0  0  0  0  0  0  0
   56.0750   -6.3760   -4.1305 C   0  0  0  0  0  0  0  0  0  0  0  0
   55.6645   -6.4465   -2.8008 C   0  0  0  0  0  0  0  0  0  0  0  0
   56.4482   -6.7759   -1.6076 C   0  0  0  0  0  0  0  0  0  0  0  0
   55.5619   -6.7049   -0.4902 N   0  0  0  0  0  0  0  0  0  0  0  0
   54.2544   -6.3438   -0.9820 C   0  0  0  0  0  0  0  0  0  0  0  0
   53.3170   -6.2258   -0.1779 O   0  0  0  0  0  0  0  0  0  0  0  0
   54.3645   -6.1941   -2.4172 C   0  0  0  0  0  0  0  0  0  0  0  0
   53.4141   -5.8534   -3.3870 C   0  0  0  0  0  0  0  0  0  0  0  0
   52.0872   -5.5620   -3.3899 C   0  0  0  0  0  0  0  0  0  0  0  0
   51.1563   -5.5008   -2.3798 C   0  0  0  0  0  0  0  0  0  0  0  0
   49.8241   -5.1908   -2.6830 C   0  0  0  0  0  0  0  0  0  0  0  0
   49.4799   -4.9560   -3.9817 C   0  0  0  0  0  0  0  0  0  0  0  0
   50.4395   -5.0221   -5.0011 C   0  0  0  0  0  0  0  0  0  0  0  0
   51.7369   -5.3215   -4.7134 C   0  0  0  0  0  0  0  0  0  0  0  0
   52.7985   -5.4487   -5.5320 N   0  0  0  0  0  0  0  0  0  0  0  0
   53.8357   -5.7850   -4.7026 C   0  0  0  0  0  0  0  0  0  0  0  0
   55.1342   -6.0422   -5.0640 C   0  0  0  0  0  0  0  0  0  0  0  0
   51.1690   -7.5085   -7.7366 H   0  0  0  0  0  0  0  0  0  0  0  0
   55.8077   -6.8844    0.5343 H   0  0  0  0  0  0  0  0  0  0  0  0
   52.3340   -6.1347   -9.2079 C   0  0  0  0  0  0  0  0  0  0  0  0
   51.6291   -7.2756   -9.6617 O   0  0  0  0  0  0  0  0  0  0  0  0
   51.2016   -7.0469  -10.5480 H   0  0  0  0  0  0  0  0  0  0  0  0
  2  1  1  0  0  0
  2  3  1  0  0  0
  3  4  1  0  0  0
  4  5  1  0  0  0
  5  6  1  0  0  0
  6  7  1  0  0  0
  6 34  1  0  0  0
 34 35  1  0  0  0
  4  8  1  0  0  0
  8  9  1  0  0  0
  9 10  2  0  0  0
 10 11  1  0  0  0
 11 12  2  0  0  0
 12 13  1  0  0  0
 13 14  2  0  0  0
 14 15  1  0  0  0
 15 16  2  0  0  0
 16 17  1  0  0  0
 17 18  1  0  0  0
 18 19  1  0  0  0
 19 20  2  0  0  0
 19 21  1  0  0  0
 21 22  2  0  0  0
 22 23  1  0  0  0
 23 24  2  0  0  0
 24 25  1  0  0  0
 25 26  2  0  0  0
 26 27  1  0  0  0
 27 28  2  0  0  0
 28 29  1  0  0  0
 29 30  1  0  0  0
 30 31  2  0  0  0
  6  2  1  0  0  0
 31  8  1  0  0  0
 29  2  1  0  0  0
 14  9  1  0  0  0
 31 15  1  0  0  0
 21 16  1  0  0  0
 30 22  1  0  0  0
 28 23  1  0  0  0
  7 32  1  0  0  0
 35 36  1  0  0  0
 18 33  1  0  0  0
M  END
> <minimizedAffinity>
7.36129

> <CNNscore>
0.2425795645

> <CNNaffinity>
5.6989564896

> <CNN_VS>
1.3824503422

> <CNNaffinity_variance>
0.4175254703

$$$$
[H]OC([H])([H])[C@@]1(O[H])C([H])([H])[C@@]2([H])O[C@]1(C([H])([H])[H])n1c3c([H])c([H])c([H])c([H])c3c3c4c(c5c6c([H])c([H])c([H])c([H])c6n2c5c31)C([H])([H])N([H])C4=O


 36 43  0  0  0  0  0  0  0  0999 V2000
   55.1290   -8.8538   -3.7905 C   0  0  0  0  0  0  0  0  0  0  0  0
   54.9167   -7.3951   -4.1843 C   0  0  0  0  0  0  0  0  0  0  0  0
   55.0016   -7.5010   -5.6050 O   0  0  0  0  0  0  0  0  0  0  0  0
   55.4476   -6.3379   -6.1241 C   0  0  0  0  0  0  0  0  0  0  0  0
   56.1896   -5.5784   -5.0585 C   0  0  0  0  0  0  0  0  0  0  0  0
   56.0524   -6.5083   -3.8654 C   0  0  0  0  0  0  0  0  0  0  0  0
   55.8446   -5.6804   -2.7649 O   0  0  0  0  0  0  0  0  0  0  0  0
   54.2745   -5.5497   -6.5055 N   0  0  0  0  0  0  0  0  0  0  0  0
   54.0953   -4.7919   -7.5703 C   0  0  0  0  0  0  0  0  0  0  0  0
   54.9269   -4.5290   -8.6347 C   0  0  0  0  0  0  0  0  0  0  0  0
   54.4838   -3.6773   -9.6439 C   0  0  0  0  0  0  0  0  0  0  0  0
   53.2164   -3.0914   -9.5893 C   0  0  0  0  0  0  0  0  0  0  0  0
   52.3784   -3.3503   -8.5260 C   0  0  0  0  0  0  0  0  0  0  0  0
   52.8367   -4.1943   -7.5413 C   0  0  0  0  0  0  0  0  0  0  0  0
   52.2572   -4.6296   -6.3987 C   0  0  0  0  0  0  0  0  0  0  0  0
   51.0330   -4.3924   -5.7770 C   0  0  0  0  0  0  0  0  0  0  0  0
   49.9159   -3.5563   -6.2238 C   0  0  0  0  0  0  0  0  0  0  0  0
   48.8945   -3.6545   -5.2308 N   0  0  0  0  0  0  0  0  0  0  0  0
   49.3712   -4.5296   -4.1874 C   0  0  0  0  0  0  0  0  0  0  0  0
   48.6415   -4.7602   -3.2109 O   0  0  0  0  0  0  0  0  0  0  0  0
   50.6988   -4.9628   -4.5671 C   0  0  0  0  0  0  0  0  0  0  0  0
   51.6116   -5.8123   -3.9307 C   0  0  0  0  0  0  0  0  0  0  0  0
   51.6399   -6.5168   -2.7694 C   0  0  0  0  0  0  0  0  0  0  0  0
   50.7274   -6.6455   -1.7489 C   0  0  0  0  0  0  0  0  0  0  0  0
   51.0391   -7.4384   -0.6367 C   0  0  0  0  0  0  0  0  0  0  0  0
   52.2485   -8.0674   -0.5922 C   0  0  0  0  0  0  0  0  0  0  0  0
   53.1689   -7.9269   -1.6398 C   0  0  0  0  0  0  0  0  0  0  0  0
   52.8719   -7.1589   -2.7250 C   0  0  0  0  0  0  0  0  0  0  0  0
   53.6082   -6.8823   -3.8180 N   0  0  0  0  0  0  0  0  0  0  0  0
   52.8220   -6.0407   -4.5600 C   0  0  0  0  0  0  0  0  0  0  0  0
   53.1363   -5.4613   -5.7634 C   0  0  0  0  0  0  0  0  0  0  0  0
   56.4097   -6.0442   -2.0270 H   0  0  0  0  0  0  0  0  0  0  0  0
   47.9408   -3.1720   -5.2433 H   0  0  0  0  0  0  0  0  0  0  0  0
   57.3571   -7.2586   -3.7695 C   0  0  0  0  0  0  0  0  0  0  0  0
   58.0500   -7.0115   -4.9791 O   0  0  0  0  0  0  0  0  0  0  0  0
   58.9847   -7.3834   -4.8856 H   0  0  0  0  0  0  0  0  0  0  0  0
  2  1  1  0  0  0
  2  3  1  0  0  0
  3  4  1  0  0  0
  4  5  1  0  0  0
  5  6  1  0  0  0
  6  7  1  0  0  0
  6 34  1  0  0  0
 34 35  1  0  0  0
  4  8  1  0  0  0
  8  9  1  0  0  0
  9 10  2  0  0  0
 10 11  1  0  0  0
 11 12  2  0  0  0
 12 13  1  0  0  0
 13 14  2  0  0  0
 14 15  1  0  0  0
 15 16  2  0  0  0
 16 17  1  0  0  0
 17 18  1  0  0  0
 18 19  1  0  0  0
 19 20  2  0  0  0
 19 21  1  0  0  0
 21 22  2  0  0  0
 22 23  1  0  0  0
 23 24  2  0  0  0
 24 25  1  0  0  0
 25 26  2  0  0  0
 26 27  1  0  0  0
 27 28  2  0  0  0
 28 29  1  0  0  0
 29 30  1  0  0  0
 30 31  2  0  0  0
  6  2  1  0  0  0
 31  8  1  0  0  0
 29  2  1  0  0  0
 14  9  1  0  0  0
 31 15  1  0  0  0
 21 16  1  0  0  0
 30 22  1  0  0  0
 28 23  1  0  0  0
  7 32  1  0  0  0
 35 36  1  0  0  0
 18 33  1  0  0  0
M  END
> <minimizedAffinity>
-12.65747

> <CNNscore>
0.2196190953

> <CNNaffinity>
6.2294907570

> <CNN_VS>
1.3681150675

> <CNNaffinity_variance>
0.3495102525

$$$$
[H]c1c([H])c(C(=O)N([H])c2c([H])c([H])c(N3C([H])([H])C([H])([H])N(S(=O)(=O)C([H])([H])[H])C([H])([H])C3([H])[H])c([H])c2[H])c(F)c([H])c1Br


 28 30  0  0  0  0  0  0  0  0999 V2000
   61.6267   -9.5598   -5.9882 C   0  0  0  0  0  0  0  0  0  0  0  0
   62.2340   -8.9396   -7.0565 C   0  0  0  0  0  0  0  0  0  0  0  0
   62.2134   -9.5080   -8.3125 C   0  0  0  0  0  0  0  0  0  0  0  0
   61.5801  -10.7354   -8.5686 C   0  0  0  0  0  0  0  0  0  0  0  0
   60.9785  -11.3474   -7.5072 C   0  0  0  0  0  0  0  0  0  0  0  0
   61.0054  -10.7591   -6.2296 C   0  0  0  0  0  0  0  0  0  0  0  0
   61.7561   -7.7613   -2.1685 N   0  0  0  0  0  0  0  0  0  0  0  0
   60.5216   -8.0457   -2.8232 C   0  0  0  0  0  0  0  0  0  0  0  0
   60.7773   -7.8813   -4.3284 C   0  0  0  0  0  0  0  0  0  0  0  0
   61.6187   -9.0080   -4.6809 N   0  0  0  0  0  0  0  0  0  0  0  0
   62.4548   -9.5352   -3.6241 C   0  0  0  0  0  0  0  0  0  0  0  0
   62.9091   -8.4229   -2.6675 C   0  0  0  0  0  0  0  0  0  0  0  0
   60.2445   -6.6868    0.0701 C   0  0  0  0  0  0  0  0  0  0  0  0
   61.6674   -7.5700   -0.4839 S   0  0  0  0  0  0  0  0  0  0  0  0
   62.9133   -6.8229   -0.0293 O   0  0  0  0  0  0  0  0  0  0  0  0
   61.6975   -8.9220    0.1581 O   0  0  0  0  0  0  0  0  0  0  0  0
   61.5956  -11.2352   -9.9054 N   0  0  0  0  0  0  0  0  0  0  0  0
   62.4362  -12.1805  -10.4555 C   0  0  0  0  0  0  0  0  0  0  0  0
   63.3395  -12.7227   -9.7265 O   0  0  0  0  0  0  0  0  0  0  0  0
   60.8334  -10.8360  -10.5504 H   0  0  0  0  0  0  0  0  0  0  0  0
   62.3812  -12.6301  -11.8310 C   0  0  0  0  0  0  0  0  0  0  0  0
   63.3509  -12.1419  -12.7419 C   0  0  0  0  0  0  0  0  0  0  0  0
   63.4169  -12.5199  -14.0391 C   0  0  0  0  0  0  0  0  0  0  0  0
   62.5132  -13.4274  -14.5490 C   0  0  0  0  0  0  0  0  0  0  0  0
   62.6833  -13.9001  -16.3808 Br  0  0  0  0  0  0  0  0  0  0  0  0
   61.5685  -13.9206  -13.7171 C   0  0  0  0  0  0  0  0  0  0  0  0
   61.4989  -13.5274  -12.3680 C   0  0  0  0  0  0  0  0  0  0  0  0
   60.5037  -14.0377  -11.5988 F   0  0  0  0  0  0  0  0  0  0  0  0
 13 14  1  0  0  0
 14 15  2  0  0  0
 14 16  2  0  0  0
 14  7  1  0  0  0
  7  8  1  0  0  0
  8  9  1  0  0  0
  9 10  1  0  0  0
 10 11  1  0  0  0
 11 12  1  0  0  0
 10  1  1  0  0  0
  1  2  2  0  0  0
  2  3  1  0  0  0
  3  4  2  0  0  0
  4 17  1  0  0  0
 17 18  1  0  0  0
 18 19  2  0  0  0
 18 21  1  0  0  0
 21 22  2  0  0  0
 22 23  1  0  0  0
 23 24  2  0  0  0
 24 25  1  0  0  0
 24 26  1  0  0  0
 26 27  2  0  0  0
 27 28  1  0  0  0
  4  5  1  0  0  0
  5  6  2  0  0  0
 12  7  1  0  0  0
  6  1  1  0  0  0
 27 21  1  0  0  0
 17 20  1  0  0  0
M  END
> <minimizedAffinity>
-3.90835

> <CNNscore>
0.4955347776

> <CNNaffinity>
4.4845933914

> <CNN_VS>
2.2222719193

> <CNNaffinity_variance>
0.1638220400

$$$$
[H]c1c([H])c(C(=O)N([H])c2c([H])c([H])c(N3C([H])([H])C([H])([H])N(S(=O)(=O)C([H])([H])[H])C([H])([H])C3([H])[H])c([H])c2[H])c(F)c([H])c1Br


 28 30  0  0  0  0  0  0  0  0999 V2000
   57.7237   -3.9502  -12.2946 C   0  0  0  0  0  0  0  0  0  0  0  0
   56.3731   -3.7943  -12.5093 C   0  0  0  0  0  0  0  0  0  0  0  0
   55.4675   -3.9609  -11.4832 C   0  0  0  0  0  0  0  0  0  0  0  0
   55.8672   -4.2947  -10.1785 C   0  0  0  0  0  0  0  0  0  0  0  0
   57.2072   -4.4480   -9.9689 C   0  0  0  0  0  0  0  0  0  0  0  0
   58.1230   -4.2759  -11.0229 C   0  0  0  0  0  0  0  0  0  0  0  0
   60.6136   -3.6805  -15.3633 N   0  0  0  0  0  0  0  0  0  0  0  0
   59.4022   -2.9293  -15.4045 C   0  0  0  0  0  0  0  0  0  0  0  0
   58.3297   -3.7922  -14.7239 C   0  0  0  0  0  0  0  0  0  0  0  0
   58.6904   -3.7826  -13.3198 N   0  0  0  0  0  0  0  0  0  0  0  0
   60.0944   -3.5974  -13.0229 C   0  0  0  0  0  0  0  0  0  0  0  0
   60.9799   -4.2304  -14.1065 C   0  0  0  0  0  0  0  0  0  0  0  0
   62.9190   -4.3338  -17.0092 C   0  0  0  0  0  0  0  0  0  0  0  0
   61.8810   -3.0838  -16.3226 S   0  0  0  0  0  0  0  0  0  0  0  0
   62.7314   -2.1634  -15.4586 O   0  0  0  0  0  0  0  0  0  0  0  0
   61.3024   -2.2534  -17.4255 O   0  0  0  0  0  0  0  0  0  0  0  0
   54.8580   -4.4278   -9.1782 N   0  0  0  0  0  0  0  0  0  0  0  0
   53.6690   -3.7378   -9.0655 C   0  0  0  0  0  0  0  0  0  0  0  0
   53.3677   -2.8519   -9.9406 O   0  0  0  0  0  0  0  0  0  0  0  0
   55.0473   -5.1838   -8.4373 H   0  0  0  0  0  0  0  0  0  0  0  0
   52.6980   -3.9378   -8.0098 C   0  0  0  0  0  0  0  0  0  0  0  0
   52.8213   -5.0834   -7.1848 C   0  0  0  0  0  0  0  0  0  0  0  0
   51.9942   -5.3525   -6.1488 C   0  0  0  0  0  0  0  0  0  0  0  0
   50.9602   -4.4950   -5.8395 C   0  0  0  0  0  0  0  0  0  0  0  0
   49.8509   -4.9534   -4.3674 Br  0  0  0  0  0  0  0  0  0  0  0  0
   50.8025   -3.3883   -6.5997 C   0  0  0  0  0  0  0  0  0  0  0  0
   51.6620   -3.1080   -7.6779 C   0  0  0  0  0  0  0  0  0  0  0  0
   51.4244   -1.9958   -8.4188 F   0  0  0  0  0  0  0  0  0  0  0  0
 13 14  1  0  0  0
 14 15  2  0  0  0
 14 16  2  0  0  0
 14  7  1  0  0  0
  7  8  1  0  0  0
  8  9  1  0  0  0
  9 10  1  0  0  0
 10 11  1  0  0  0
 11 12  1  0  0  0
 10  1  1  0  0  0
  1  2  2  0  0  0
  2  3  1  0  0  0
  3  4  2  0  0  0
  4 17  1  0  0  0
 17 18  1  0  0  0
 18 19  2  0  0  0
 18 21  1  0  0  0
 21 22  2  0  0  0
 22 23  1  0  0  0
 23 24  2  0  0  0
 24 25  1  0  0  0
 24 26  1  0  0  0
 26 27  2  0  0  0
 27 28  1  0  0  0
  4  5  1  0  0  0
  5  6  2  0  0  0
 12  7  1  0  0  0
  6  1  1  0  0  0
 27 21  1  0  0  0
 17 20  1  0  0  0
M  END
> <minimizedAffinity>
-8.24360

> <CNNscore>
0.4844308496

> <CNNaffinity>
6.0645003319

> <CNN_VS>
2.9378311634

> <CNNaffinity_variance>
0.4405055046

$$$$
[H]c1c([H])c(C(=O)N([H])c2c([H])c([H])c(N3C([H])([H])C([H])([H])N(S(=O)(=O)C([H])([H])[H])C([H])([H])C3([H])[H])c([H])c2[H])c(F)c([H])c1Br


 28 30  0  0  0  0  0  0  0  0999 V2000
   57.6460   -3.7721  -13.1173 C   0  0  0  0  0  0  0  0  0  0  0  0
   57.4180   -4.0267  -11.7839 C   0  0  0  0  0  0  0  0  0  0  0  0
   58.4152   -4.5330  -10.9775 C   0  0  0  0  0  0  0  0  0  0  0  0
   59.7023   -4.8138  -11.4651 C   0  0  0  0  0  0  0  0  0  0  0  0
   59.9251   -4.5597  -12.7876 C   0  0  0  0  0  0  0  0  0  0  0  0
   58.9008   -4.0431  -13.6019 C   0  0  0  0  0  0  0  0  0  0  0  0
   54.6997   -2.3987  -15.8145 N   0  0  0  0  0  0  0  0  0  0  0  0
   54.5012   -2.3619  -14.4028 C   0  0  0  0  0  0  0  0  0  0  0  0
   55.2474   -3.5733  -13.8249 C   0  0  0  0  0  0  0  0  0  0  0  0
   56.6510   -3.2460  -13.9814 N   0  0  0  0  0  0  0  0  0  0  0  0
   56.9807   -2.3556  -15.0733 C   0  0  0  0  0  0  0  0  0  0  0  0
   56.0357   -2.5648  -16.2658 C   0  0  0  0  0  0  0  0  0  0  0  0
   52.6028   -2.1605  -17.8136 C   0  0  0  0  0  0  0  0  0  0  0  0
   53.7235   -1.3467  -16.7214 S   0  0  0  0  0  0  0  0  0  0  0  0
   54.6373   -0.4468  -17.5412 O   0  0  0  0  0  0  0  0  0  0  0  0
   52.9569   -0.4687  -15.7820 O   0  0  0  0  0  0  0  0  0  0  0  0
   60.6740   -5.3186  -10.5498 N   0  0  0  0  0  0  0  0  0  0  0  0
   60.8482   -6.6166  -10.1169 C   0  0  0  0  0  0  0  0  0  0  0  0
   60.0747   -7.5382  -10.5571 O   0  0  0  0  0  0  0  0  0  0  0  0
   61.3706   -4.5896  -10.1763 H   0  0  0  0  0  0  0  0  0  0  0  0
   61.8664   -7.0419   -9.1790 C   0  0  0  0  0  0  0  0  0  0  0  0
   61.4629   -7.7308   -8.0081 C   0  0  0  0  0  0  0  0  0  0  0  0
   62.3281   -8.2043   -7.0823 C   0  0  0  0  0  0  0  0  0  0  0  0
   63.6863   -8.0318   -7.2429 C   0  0  0  0  0  0  0  0  0  0  0  0
   64.8250   -8.7312   -5.8930 Br  0  0  0  0  0  0  0  0  0  0  0  0
   64.1190   -7.3795   -8.3451 C   0  0  0  0  0  0  0  0  0  0  0  0
   63.2196   -6.8861   -9.3080 C   0  0  0  0  0  0  0  0  0  0  0  0
   63.7225   -6.2117  -10.3733 F   0  0  0  0  0  0  0  0  0  0  0  0
 13 14  1  0  0  0
 14 15  2  0  0  0
 14 16  2  0  0  0
 14  7  1  0  0  0
  7  8  1  0  0  0
  8  9  1  0  0  0
  9 10  1  0  0  0
 10 11  1  0  0  0
 11 12  1  0  0  0
 10  1  1  0  0  0
  1  2  2  0  0  0
  2  3  1  0  0  0
  3  4  2  0  0  0
  4 17  1  0  0  0
 17 18  1  0  0  0
 18 19  2  0  0  0
 18 21  1  0  0  0
 21 22  2  0  0  0
 22 23  1  0  0  0
 23 24  2  0  0  0
 24 25  1  0  0  0
 24 26  1  0  0  0
 26 27  2  0  0  0
 27 28  1  0  0  0
  4  5  1  0  0  0
  5  6  2  0  0  0
 12  7  1  0  0  0
  6  1  1  0  0  0
 27 21  1  0  0  0
 17 20  1  0  0  0
M  END
> <minimizedAffinity>
9.81868

> <CNNscore>
0.4431692958

> <CNNaffinity>
4.5857057571

> <CNN_VS>
2.0322439671

> <CNNaffinity_variance>
0.3523043096

$$$$
[H]c1c([H])c(C(=O)N([H])c2c([H])c([H])c(N3C([H])([H])C([H])([H])N(S(=O)(=O)C([H])([H])[H])C([H])([H])C3([H])[H])c([H])c2[H])c(F)c([H])c1Br


 28 30  0  0  0  0  0  0  0  0999 V2000
   58.6015   -5.2280  -10.9595 C   0  0  0  0  0  0  0  0  0  0  0  0
   59.6694   -6.0917  -10.8680 C   0  0  0  0  0  0  0  0  0  0  0  0
   60.1280   -6.5259   -9.6425 C   0  0  0  0  0  0  0  0  0  0  0  0
   59.5390   -6.1166   -8.4347 C   0  0  0  0  0  0  0  0  0  0  0  0
   58.4800   -5.2606   -8.5289 C   0  0  0  0  0  0  0  0  0  0  0  0
   58.0199   -4.8233   -9.7844 C   0  0  0  0  0  0  0  0  0  0  0  0
   57.1739   -4.0272  -14.7491 N   0  0  0  0  0  0  0  0  0  0  0  0
   56.3374   -4.0186  -13.5943 C   0  0  0  0  0  0  0  0  0  0  0  0
   56.8036   -5.1831  -12.7085 C   0  0  0  0  0  0  0  0  0  0  0  0
   58.0935   -4.7608  -12.1993 N   0  0  0  0  0  0  0  0  0  0  0  0
   58.8369   -3.8388  -13.0307 C   0  0  0  0  0  0  0  0  0  0  0  0
   58.5736   -4.0984  -14.5214 C   0  0  0  0  0  0  0  0  0  0  0  0
   57.8452   -1.8068  -16.5013 C   0  0  0  0  0  0  0  0  0  0  0  0
   56.6687   -3.0335  -16.0297 S   0  0  0  0  0  0  0  0  0  0  0  0
   55.3822   -2.3389  -15.6064 O   0  0  0  0  0  0  0  0  0  0  0  0
   56.3443   -3.8947  -17.2103 O   0  0  0  0  0  0  0  0  0  0  0  0
   60.0717   -6.6343   -7.2160 N   0  0  0  0  0  0  0  0  0  0  0  0
   61.3893   -6.8924   -6.8999 C   0  0  0  0  0  0  0  0  0  0  0  0
   62.3042   -6.6554   -7.7649 O   0  0  0  0  0  0  0  0  0  0  0  0
   59.3469   -6.8186   -6.4434 H   0  0  0  0  0  0  0  0  0  0  0  0
   61.8428   -7.4224   -5.6308 C   0  0  0  0  0  0  0  0  0  0  0  0
   61.0206   -8.3586   -4.9556 C   0  0  0  0  0  0  0  0  0  0  0  0
   61.3590   -8.9443   -3.7842 C   0  0  0  0  0  0  0  0  0  0  0  0
   62.5593   -8.6462   -3.1753 C   0  0  0  0  0  0  0  0  0  0  0  0
   62.9504   -9.5177   -1.5335 Br  0  0  0  0  0  0  0  0  0  0  0  0
   63.3772   -7.7573   -3.7823 C   0  0  0  0  0  0  0  0  0  0  0  0
   63.0255   -7.1472   -5.0004 C   0  0  0  0  0  0  0  0  0  0  0  0
   63.8803   -6.2391   -5.5364 F   0  0  0  0  0  0  0  0  0  0  0  0
 13 14  1  0  0  0
 14 15  2  0  0  0
 14 16  2  0  0  0
 14  7  1  0  0  0
  7  8  1  0  0  0
  8  9  1  0  0  0
  9 10  1  0  0  0
 10 11  1  0  0  0
 11 12  1  0  0  0
 10  1  1  0  0  0
  1  2  2  0  0  0
  2  3  1  0  0  0
  3  4  2  0  0  0
  4 17  1  0  0  0
 17 18  1  0  0  0
 18 19  2  0  0  0
 18 21  1  0  0  0
 21 22  2  0  0  0
 22 23  1  0  0  0
 23 24  2  0  0  0
 24 25  1  0  0  0
 24 26  1  0  0  0
 26 27  2  0  0  0
 27 28  1  0  0  0
  4  5  1  0  0  0
  5  6  2  0  0  0
 12  7  1  0  0  0
  6  1  1  0  0  0
 27 21  1  0  0  0
 17 20  1  0  0  0
M  END
> <minimizedAffinity>
1.14370

> <CNNscore>
0.4125296175

> <CNNaffinity>
4.7588405609

> <CNN_VS>
1.9631626606

> <CNNaffinity_variance>
0.1742369533

$$$$
[H]c1c([H])c(C(=O)N([H])c2c([H])c([H])c(N3C([H])([H])C([H])([H])N(S(=O)(=O)C([H])([H])[H])C([H])([H])C3([H])[H])c([H])c2[H])c(F)c([H])c1Br


 28 30  0  0  0  0  0  0  0  0999 V2000
   57.9039   -5.2959   -9.0464 C   0  0  0  0  0  0  0  0  0  0  0  0
   57.6659   -5.5520   -7.7150 C   0  0  0  0  0  0  0  0  0  0  0  0
   56.4455   -5.2607   -7.1434 C   0  0  0  0  0  0  0  0  0  0  0  0
   55.3908   -4.6939   -7.8779 C   0  0  0  0  0  0  0  0  0  0  0  0
   55.6299   -4.4417   -9.1979 C   0  0  0  0  0  0  0  0  0  0  0  0
   56.8788   -4.7425   -9.7715 C   0  0  0  0  0  0  0  0  0  0  0  0
   61.6546   -5.9399  -10.8789 N   0  0  0  0  0  0  0  0  0  0  0  0
   61.1326   -6.8372   -9.9013 C   0  0  0  0  0  0  0  0  0  0  0  0
   60.3124   -5.9862   -8.9208 C   0  0  0  0  0  0  0  0  0  0  0  0
   59.1420   -5.5850   -9.6763 N   0  0  0  0  0  0  0  0  0  0  0  0
   59.3097   -5.4909  -11.1105 C   0  0  0  0  0  0  0  0  0  0  0  0
   60.7320   -5.0405  -11.4755 C   0  0  0  0  0  0  0  0  0  0  0  0
   62.6642   -6.1379  -13.5977 C   0  0  0  0  0  0  0  0  0  0  0  0
   62.8498   -6.5806  -11.9004 S   0  0  0  0  0  0  0  0  0  0  0  0
   62.8040   -8.0976  -11.7838 O   0  0  0  0  0  0  0  0  0  0  0  0
   64.1927   -6.1350  -11.4117 O   0  0  0  0  0  0  0  0  0  0  0  0
   54.1579   -4.4450   -7.2035 N   0  0  0  0  0  0  0  0  0  0  0  0
   52.9384   -4.1021   -7.7493 C   0  0  0  0  0  0  0  0  0  0  0  0
   52.8276   -3.9784   -9.0197 O   0  0  0  0  0  0  0  0  0  0  0  0
   54.1890   -4.5690   -6.1359 H   0  0  0  0  0  0  0  0  0  0  0  0
   51.7315   -3.8653   -6.9847 C   0  0  0  0  0  0  0  0  0  0  0  0
   50.8913   -2.7884   -7.3622 C   0  0  0  0  0  0  0  0  0  0  0  0
   49.7244   -2.4967   -6.7433 C   0  0  0  0  0  0  0  0  0  0  0  0
   49.2865   -3.2602   -5.6824 C   0  0  0  0  0  0  0  0  0  0  0  0
   47.6360   -2.7769   -4.8760 Br  0  0  0  0  0  0  0  0  0  0  0  0
   50.0556   -4.2987   -5.2856 C   0  0  0  0  0  0  0  0  0  0  0  0
   51.2698   -4.6024   -5.9285 C   0  0  0  0  0  0  0  0  0  0  0  0
   52.0072   -5.6394   -5.4558 F   0  0  0  0  0  0  0  0  0  0  0  0
 13 14  1  0  0  0
 14 15  2  0  0  0
 14 16  2  0  0  0
 14  7  1  0  0  0
  7  8  1  0  0  0
  8  9  1  0  0  0
  9 10  1  0  0  0
 10 11  1  0  0  0
 11 12  1  0  0  0
 10  1  1  0  0  0
  1  2  2  0  0  0
  2  3  1  0  0  0
  3  4  2  0  0  0
  4 17  1  0  0  0
 17 18  1  0  0  0
 18 19  2  0  0  0
 18 21  1  0  0  0
 21 22  2  0  0  0
 22 23  1  0  0  0
 23 24  2  0  0  0
 24 25  1  0  0  0
 24 26  1  0  0  0
 26 27  2  0  0  0
 27 28  1  0  0  0
  4  5  1  0  0  0
  5  6  2  0  0  0
 12  7  1  0  0  0
  6  1  1  0  0  0
 27 21  1  0  0  0
 17 20  1  0  0  0
M  END
> <minimizedAffinity>
-6.79091

> <CNNscore>
0.3707425594

> <CNNaffinity>
5.7387366295

> <CNN_VS>
2.1275939941

> <CNNaffinity_variance>
0.2279222906

$$$$
[H]c1c([H])c(C(=O)N([H])c2c([H])c([H])c(N3C([H])([H])C([H])([H])N(S(=O)(=O)C([H])([H])[H])C([H])([H])C3([H])[H])c([H])c2[H])c(F)c([H])c1Br


 28 30  0  0  0  0  0  0  0  0999 V2000
   61.9900   -8.5689   -6.2751 C   0  0  0  0  0  0  0  0  0  0  0  0
   62.7120   -7.4892   -6.7309 C   0  0  0  0  0  0  0  0  0  0  0  0
   63.1264   -7.4158   -8.0437 C   0  0  0  0  0  0  0  0  0  0  0  0
   62.8391   -8.4254   -8.9772 C   0  0  0  0  0  0  0  0  0  0  0  0
   62.1227   -9.4944   -8.5222 C   0  0  0  0  0  0  0  0  0  0  0  0
   61.7045   -9.5596   -7.1805 C   0  0  0  0  0  0  0  0  0  0  0  0
   60.4384   -8.8388   -2.3558 N   0  0  0  0  0  0  0  0  0  0  0  0
   61.1874   -9.9014   -2.9418 C   0  0  0  0  0  0  0  0  0  0  0  0
   60.8779   -9.8766   -4.4457 C   0  0  0  0  0  0  0  0  0  0  0  0
   61.5386   -8.6824   -4.9346 N   0  0  0  0  0  0  0  0  0  0  0  0
   61.7072   -7.6096   -3.9784 C   0  0  0  0  0  0  0  0  0  0  0  0
   60.5416   -7.5673   -2.9792 C   0  0  0  0  0  0  0  0  0  0  0  0
   60.1527   -7.2447    0.0583 C   0  0  0  0  0  0  0  0  0  0  0  0
   60.3616   -8.8422   -0.6598 S   0  0  0  0  0  0  0  0  0  0  0  0
   61.6537   -9.4495   -0.1319 O   0  0  0  0  0  0  0  0  0  0  0  0
   59.2395   -9.7344   -0.2288 O   0  0  0  0  0  0  0  0  0  0  0  0
   63.2946   -8.2519  -10.3186 N   0  0  0  0  0  0  0  0  0  0  0  0
   62.7061   -7.5285  -11.3350 C   0  0  0  0  0  0  0  0  0  0  0  0
   61.6097   -6.9041  -11.1126 O   0  0  0  0  0  0  0  0  0  0  0  0
   64.2305   -8.7292  -10.5478 H   0  0  0  0  0  0  0  0  0  0  0  0
   63.2406   -7.4072  -12.6755 C   0  0  0  0  0  0  0  0  0  0  0  0
   64.0499   -8.4560  -13.1789 C   0  0  0  0  0  0  0  0  0  0  0  0
   64.5723   -8.4656  -14.4266 C   0  0  0  0  0  0  0  0  0  0  0  0
   64.3319   -7.4203  -15.2926 C   0  0  0  0  0  0  0  0  0  0  0  0
   65.1051   -7.5205  -17.0246 Br  0  0  0  0  0  0  0  0  0  0  0  0
   63.5652   -6.3960  -14.8561 C   0  0  0  0  0  0  0  0  0  0  0  0
   63.0221   -6.3850  -13.5582 C   0  0  0  0  0  0  0  0  0  0  0  0
   62.2890   -5.3085  -13.1758 F   0  0  0  0  0  0  0  0  0  0  0  0
 13 14  1  0  0  0
 14 15  2  0  0  0
 14 16  2  0  0  0
 14  7  1  0  0  0
  7  8  1  0  0  0
  8  9  1  0  0  0
  9 10  1  0  0  0
 10 11  1  0  0  0
 11 12  1  0  0  0
 10  1  1  0  0  0
  1  2  2  0  0  0
  2  3  1  0  0  0
  3  4  2  0  0  0
  4 17  1  0  0  0
 17 18  1  0  0  0
 18 19  2  0  0  0
 18 21  1  0  0  0
 21 22  2  0  0  0
 22 23  1  0  0  0
 23 24  2  0  0  0
 24 25  1  0  0  0
 24 26  1  0  0  0
 26 27  2  0  0  0
 27 28  1  0  0  0
  4  5  1  0  0  0
  5  6  2  0  0  0
 12  7  1  0  0  0
  6  1  1  0  0  0
 27 21  1  0  0  0
 17 20  1  0  0  0
M  END
> <minimizedAffinity>
-3.27243

> <CNNscore>
0.3595613837

> <CNNaffinity>
4.3271017075

> <CNN_VS>
1.5558587313

> <CNNaffinity_variance>
0.1786787212

$$$$
[H]c1c([H])c(C(=O)N([H])c2c([H])c([H])c(N3C([H])([H])C([H])([H])N(S(=O)(=O)C([H])([H])[H])C([H])([H])C3([H])[H])c([H])c2[H])c(F)c([H])c1Br


 28 30  0  0  0  0  0  0  0  0999 V2000
   57.5228   -3.9168  -12.3008 C   0  0  0  0  0  0  0  0  0  0  0  0
   56.1565   -3.8027  -12.4233 C   0  0  0  0  0  0  0  0  0  0  0  0
   55.3263   -4.0253  -11.3452 C   0  0  0  0  0  0  0  0  0  0  0  0
   55.8218   -4.3766  -10.0786 C   0  0  0  0  0  0  0  0  0  0  0  0
   57.1770   -4.4884   -9.9605 C   0  0  0  0  0  0  0  0  0  0  0  0
   58.0154   -4.2592  -11.0668 C   0  0  0  0  0  0  0  0  0  0  0  0
   60.1348   -3.0190  -15.4965 N   0  0  0  0  0  0  0  0  0  0  0  0
   60.5226   -3.8819  -14.4294 C   0  0  0  0  0  0  0  0  0  0  0  0
   59.8108   -3.3665  -13.1701 C   0  0  0  0  0  0  0  0  0  0  0  0
   58.4138   -3.6910  -13.3818 N   0  0  0  0  0  0  0  0  0  0  0  0
   57.9779   -3.7663  -14.7595 C   0  0  0  0  0  0  0  0  0  0  0  0
   58.7446   -2.7688  -15.6405 C   0  0  0  0  0  0  0  0  0  0  0  0
   62.7712   -3.2394  -16.7015 C   0  0  0  0  0  0  0  0  0  0  0  0
   61.0235   -3.1829  -16.9338 S   0  0  0  0  0  0  0  0  0  0  0  0
   60.6883   -2.0000  -17.8313 O   0  0  0  0  0  0  0  0  0  0  0  0
   60.5732   -4.4228  -17.6414 O   0  0  0  0  0  0  0  0  0  0  0  0
   54.8856   -4.5688   -9.0187 N   0  0  0  0  0  0  0  0  0  0  0  0
   53.7308   -3.8607   -8.7584 C   0  0  0  0  0  0  0  0  0  0  0  0
   53.3943   -2.8958   -9.5312 O   0  0  0  0  0  0  0  0  0  0  0  0
   55.1047   -5.3900   -8.3600 H   0  0  0  0  0  0  0  0  0  0  0  0
   52.8346   -4.1252   -7.6521 C   0  0  0  0  0  0  0  0  0  0  0  0
   51.6532   -3.3508   -7.5379 C   0  0  0  0  0  0  0  0  0  0  0  0
   50.7289   -3.5340   -6.5673 C   0  0  0  0  0  0  0  0  0  0  0  0
   50.9013   -4.5153   -5.6148 C   0  0  0  0  0  0  0  0  0  0  0  0
   49.5512   -4.7003   -4.2916 Br  0  0  0  0  0  0  0  0  0  0  0  0
   52.0144   -5.2795   -5.6828 C   0  0  0  0  0  0  0  0  0  0  0  0
   52.9766   -5.0891   -6.6915 C   0  0  0  0  0  0  0  0  0  0  0  0
   54.0861   -5.8710   -6.6792 F   0  0  0  0  0  0  0  0  0  0  0  0
 13 14  1  0  0  0
 14 15  2  0  0  0
 14 16  2  0  0  0
 14  7  1  0  0  0
  7  8  1  0  0  0
  8  9  1  0  0  0
  9 10  1  0  0  0
 10 11  1  0  0  0
 11 12  1  0  0  0
 10  1  1  0  0  0
  1  2  2  0  0  0
  2  3  1  0  0  0
  3  4  2  0  0  0
  4 17  1  0  0  0
 17 18  1  0  0  0
 18 19  2  0  0  0
 18 21  1  0  0  0
 21 22  2  0  0  0
 22 23  1  0  0  0
 23 24  2  0  0  0
 24 25  1  0  0  0
 24 26  1  0  0  0
 26 27  2  0  0  0
 27 28  1  0  0  0
  4  5  1  0  0  0
  5  6  2  0  0  0
 12  7  1  0  0  0
  6  1  1  0  0  0
 27 21  1  0  0  0
 17 20  1  0  0  0
M  END
> <minimizedAffinity>
-7.95391

> <CNNscore>
0.3409897983

> <CNNaffinity>
5.9058609009

> <CNN_VS>
2.0138382912

> <CNNaffinity_variance>
0.3659677207

$$$$
[H]c1c([H])c(C(=O)N([H])c2c([H])c([H])c(N3C([H])([H])C([H])([H])N(S(=O)(=O)C([H])([H])[H])C([H])([H])C3([H])[H])c([H])c2[H])c(F)c([H])c1Br


 28 30  0  0  0  0  0  0  0  0999 V2000
   61.4566   -9.6383   -6.4626 C   0  0  0  0  0  0  0  0  0  0  0  0
   61.7062   -8.3130   -6.7386 C   0  0  0  0  0  0  0  0  0  0  0  0
   61.8703   -7.8770   -8.0362 C   0  0  0  0  0  0  0  0  0  0  0  0
   61.7931   -8.7492   -9.1346 C   0  0  0  0  0  0  0  0  0  0  0  0
   61.5450  -10.0626   -8.8575 C   0  0  0  0  0  0  0  0  0  0  0  0
   61.3792  -10.4972   -7.5298 C   0  0  0  0  0  0  0  0  0  0  0  0
   61.1422  -11.1489   -2.5307 N   0  0  0  0  0  0  0  0  0  0  0  0
   60.6047   -9.8785   -2.8923 C   0  0  0  0  0  0  0  0  0  0  0  0
   61.5285   -9.3060   -3.9771 C   0  0  0  0  0  0  0  0  0  0  0  0
   61.2756  -10.1288   -5.1435 N   0  0  0  0  0  0  0  0  0  0  0  0
   60.8326  -11.4820   -4.8859 C   0  0  0  0  0  0  0  0  0  0  0  0
   61.4555  -12.0346   -3.5953 C   0  0  0  0  0  0  0  0  0  0  0  0
   60.8827  -13.5600   -0.9276 C   0  0  0  0  0  0  0  0  0  0  0  0
   60.4851  -11.8539   -1.1330 S   0  0  0  0  0  0  0  0  0  0  0  0
   58.9712  -11.7101   -1.2012 O   0  0  0  0  0  0  0  0  0  0  0  0
   60.9538  -11.0842    0.0624 O   0  0  0  0  0  0  0  0  0  0  0  0
   61.9581   -8.2018  -10.4423 N   0  0  0  0  0  0  0  0  0  0  0  0
   63.1318   -7.9073  -11.1044 C   0  0  0  0  0  0  0  0  0  0  0  0
   64.2545   -8.1337  -10.5303 O   0  0  0  0  0  0  0  0  0  0  0  0
   61.0446   -8.0246  -10.9811 H   0  0  0  0  0  0  0  0  0  0  0  0
   63.2065   -7.3487  -12.4385 C   0  0  0  0  0  0  0  0  0  0  0  0
   62.7793   -6.0123  -12.6377 C   0  0  0  0  0  0  0  0  0  0  0  0
   62.8370   -5.3778  -13.8310 C   0  0  0  0  0  0  0  0  0  0  0  0
   63.3307   -6.0254  -14.9432 C   0  0  0  0  0  0  0  0  0  0  0  0
   63.3748   -5.0553  -16.5757 Br  0  0  0  0  0  0  0  0  0  0  0  0
   63.7499   -7.3028  -14.8019 C   0  0  0  0  0  0  0  0  0  0  0  0
   63.6896   -7.9636  -13.5612 C   0  0  0  0  0  0  0  0  0  0  0  0
   64.0969   -9.2570  -13.4998 F   0  0  0  0  0  0  0  0  0  0  0  0
 13 14  1  0  0  0
 14 15  2  0  0  0
 14 16  2  0  0  0
 14  7  1  0  0  0
  7  8  1  0  0  0
  8  9  1  0  0  0
  9 10  1  0  0  0
 10 11  1  0  0  0
 11 12  1  0  0  0
 10  1  1  0  0  0
  1  2  2  0  0  0
  2  3  1  0  0  0
  3  4  2  0  0  0
  4 17  1  0  0  0
 17 18  1  0  0  0
 18 19  2  0  0  0
 18 21  1  0  0  0
 21 22  2  0  0  0
 22 23  1  0  0  0
 23 24  2  0  0  0
 24 25  1  0  0  0
 24 26  1  0  0  0
 26 27  2  0  0  0
 27 28  1  0  0  0
  4  5  1  0  0  0
  5  6  2  0  0  0
 12  7  1  0  0  0
  6  1  1  0  0  0
 27 21  1  0  0  0
 17 20  1  0  0  0
M  END
> <minimizedAffinity>
-3.37263

> <CNNscore>
0.3014795184

> <CNNaffinity>
4.2624883652

> <CNN_VS>
1.2850528955

> <CNNaffinity_variance>
0.0180105083

$$$$
[H]c1c([H])c(C(=O)N([H])c2c([H])c([H])c(N3C([H])([H])C([H])([H])N(S(=O)(=O)C([H])([H])[H])C([H])([H])C3([H])[H])c([H])c2[H])c(F)c([H])c1Br


 28 30  0  0  0  0  0  0  0  0999 V2000
   56.5017   -4.0016  -11.3859 C   0  0  0  0  0  0  0  0  0  0  0  0
   55.1459   -3.8191  -11.5380 C   0  0  0  0  0  0  0  0  0  0  0  0
   54.2817   -4.0053  -10.4801 C   0  0  0  0  0  0  0  0  0  0  0  0
   54.7305   -4.3868   -9.2048 C   0  0  0  0  0  0  0  0  0  0  0  0
   56.0755   -4.5664   -9.0572 C   0  0  0  0  0  0  0  0  0  0  0  0
   56.9488   -4.3739  -10.1433 C   0  0  0  0  0  0  0  0  0  0  0  0
   59.3203   -3.6664  -14.5139 N   0  0  0  0  0  0  0  0  0  0  0  0
   57.9714   -3.2305  -14.6687 C   0  0  0  0  0  0  0  0  0  0  0  0
   57.1079   -4.1701  -13.8145 C   0  0  0  0  0  0  0  0  0  0  0  0
   57.4270   -3.8153  -12.4455 N   0  0  0  0  0  0  0  0  0  0  0  0
   58.7459   -3.2646  -12.2199 C   0  0  0  0  0  0  0  0  0  0  0  0
   59.7747   -3.8728  -13.1846 C   0  0  0  0  0  0  0  0  0  0  0  0
   61.3423   -4.1756  -16.5395 C   0  0  0  0  0  0  0  0  0  0  0  0
   60.4399   -2.9895  -15.5960 S   0  0  0  0  0  0  0  0  0  0  0  0
   61.4254   -2.1538  -14.7913 O   0  0  0  0  0  0  0  0  0  0  0  0
   59.7169   -2.0607  -16.5210 O   0  0  0  0  0  0  0  0  0  0  0  0
   53.7622   -4.5372   -8.1671 N   0  0  0  0  0  0  0  0  0  0  0  0
   52.6571   -3.7534   -7.9081 C   0  0  0  0  0  0  0  0  0  0  0  0
   52.4068   -2.7469   -8.6602 O   0  0  0  0  0  0  0  0  0  0  0  0
   53.9083   -5.3889   -7.5271 H   0  0  0  0  0  0  0  0  0  0  0  0
   51.7226   -3.9801   -6.8252 C   0  0  0  0  0  0  0  0  0  0  0  0
   50.5632   -3.1685   -6.7507 C   0  0  0  0  0  0  0  0  0  0  0  0
   49.6070   -3.3142   -5.8051 C   0  0  0  0  0  0  0  0  0  0  0  0
   49.7221   -4.2918   -4.8400 C   0  0  0  0  0  0  0  0  0  0  0  0
   48.3306   -4.4229   -3.5538 Br  0  0  0  0  0  0  0  0  0  0  0  0
   50.8124   -5.0905   -4.8704 C   0  0  0  0  0  0  0  0  0  0  0  0
   51.8078   -4.9391   -5.8532 C   0  0  0  0  0  0  0  0  0  0  0  0
   52.8917   -5.7547   -5.8032 F   0  0  0  0  0  0  0  0  0  0  0  0
 13 14  1  0  0  0
 14 15  2  0  0  0
 14 16  2  0  0  0
 14  7  1  0  0  0
  7  8  1  0  0  0
  8  9  1  0  0  0
  9 10  1  0  0  0
 10 11  1  0  0  0
 11 12  1  0  0  0
 10  1  1  0  0  0
  1  2  2  0  0  0
  2  3  1  0  0  0
  3  4  2  0  0  0
  4 17  1  0  0  0
 17 18  1  0  0  0
 18 19  2  0  0  0
 18 21  1  0  0  0
 21 22  2  0  0  0
 22 23  1  0  0  0
 23 24  2  0  0  0
 24 25  1  0  0  0
 24 26  1  0  0  0
 26 27  2  0  0  0
 27 28  1  0  0  0
  4  5  1  0  0  0
  5  6  2  0  0  0
 12  7  1  0  0  0
  6  1  1  0  0  0
 27 21  1  0  0  0
 17 20  1  0  0  0
M  END
> <minimizedAffinity>
-7.86190

> <CNNscore>
0.2676983774

> <CNNaffinity>
5.7911925316

> <CNN_VS>
1.5502928495

> <CNNaffinity_variance>
0.2415430844

$$$$
[H]OC(=O)[C@]1([H])O[C@@]([H])(n2c([H])nc3c(N([H])[H])nc([H])nc32)[C@@]([H])(O[H])[C@]1([H])O[H]


 25 27  0  0  0  0  0  0  0  0999 V2000
   54.2335   -5.5503   -7.1703 C   0  0  0  0  0  0  0  0  0  0  0  0
   54.5137   -5.4769   -5.8388 O   0  0  0  0  0  0  0  0  0  0  0  0
   55.8775   -5.4916   -5.6569 C   0  0  0  0  0  0  0  0  0  0  0  0
   56.5184   -5.0400   -6.9286 C   0  0  0  0  0  0  0  0  0  0  0  0
   57.7070   -5.7678   -7.1627 O   0  0  0  0  0  0  0  0  0  0  0  0
   55.4793   -5.3692   -7.9612 C   0  0  0  0  0  0  0  0  0  0  0  0
   55.3925   -4.3406   -8.9055 O   0  0  0  0  0  0  0  0  0  0  0  0
   57.8379   -5.7937   -8.1406 H   0  0  0  0  0  0  0  0  0  0  0  0
   55.7770   -4.5935   -9.7761 H   0  0  0  0  0  0  0  0  0  0  0  0
   49.4694   -1.7293   -7.6163 N   0  0  0  0  0  0  0  0  0  0  0  0
   50.1915   -2.7979   -7.0277 C   0  0  0  0  0  0  0  0  0  0  0  0
   49.6669   -3.4264   -5.9602 N   0  0  0  0  0  0  0  0  0  0  0  0
   50.3050   -4.4485   -5.3574 C   0  0  0  0  0  0  0  0  0  0  0  0
   51.4980   -4.8724   -5.8128 N   0  0  0  0  0  0  0  0  0  0  0  0
   52.0875   -4.2944   -6.8759 C   0  0  0  0  0  0  0  0  0  0  0  0
   53.2490   -4.5237   -7.5146 N   0  0  0  0  0  0  0  0  0  0  0  0
   53.2980   -3.6217   -8.5118 C   0  0  0  0  0  0  0  0  0  0  0  0
   52.1810   -2.8450   -8.4894 N   0  0  0  0  0  0  0  0  0  0  0  0
   51.4149   -3.2424   -7.4843 C   0  0  0  0  0  0  0  0  0  0  0  0
   49.6253   -0.7302   -7.3822 H   0  0  0  0  0  0  0  0  0  0  0  0
   48.7401   -1.9483   -8.3238 H   0  0  0  0  0  0  0  0  0  0  0  0
   56.2878   -6.8733   -5.2987 C   0  0  0  0  0  0  0  0  0  0  0  0
   57.5548   -7.1520   -4.8183 O   0  0  0  0  0  0  0  0  0  0  0  0
   55.4596   -7.8163   -5.4363 O   0  0  0  0  0  0  0  0  0  0  0  0
   57.8516   -6.9730   -3.8855 H   0  0  0  0  0  0  0  0  0  0  0  0
 10 11  1  0  0  0
 11 12  2  0  0  0
 12 13  1  0  0  0
 13 14  2  0  0  0
 14 15  1  0  0  0
 15 16  1  0  0  0
 16 17  1  0  0  0
 17 18  2  0  0  0
 18 19  1  0  0  0
 16  1  1  0  0  0
  1  2  1  0  0  0
  2  3  1  0  0  0
  3  4  1  0  0  0
  4  5  1  0  0  0
  4  6  1  0  0  0
  6  7  1  0  0  0
  3 22  1  0  0  0
 22 23  1  0  0  0
 22 24  2  0  0  0
 19 11  1  0  0  0
  6  1  1  0  0  0
 19 15  2  0  0  0
 10 20  1  0  0  0
 10 21  1  0  0  0
  5  8  1  0  0  0
  7  9  1  0  0  0
 23 25  1  0  0  0
M  END
> <minimizedAffinity>
-7.64863

> <CNNscore>
0.5923050642

> <CNNaffinity>
4.8552651405

> <CNN_VS>
2.8757982254

> <CNNaffinity_variance>
0.2593566179

$$$$
[H]OC(=O)[C@]1([H])O[C@@]([H])(n2c([H])nc3c(N([H])[H])nc([H])nc32)[C@@]([H])(O[H])[C@]1([H])O[H]


 25 27  0  0  0  0  0  0  0  0999 V2000
   54.3403   -6.3763   -5.2629 C   0  0  0  0  0  0  0  0  0  0  0  0
   53.6025   -6.8283   -4.2103 O   0  0  0  0  0  0  0  0  0  0  0  0
   54.3335   -6.7016   -3.0514 C   0  0  0  0  0  0  0  0  0  0  0  0
   55.3804   -5.6599   -3.2768 C   0  0  0  0  0  0  0  0  0  0  0  0
   56.5795   -6.0219   -2.6223 O   0  0  0  0  0  0  0  0  0  0  0  0
   55.5585   -5.6829   -4.7675 C   0  0  0  0  0  0  0  0  0  0  0  0
   55.6940   -4.3800   -5.2588 O   0  0  0  0  0  0  0  0  0  0  0  0
   57.3181   -5.6115   -3.1322 H   0  0  0  0  0  0  0  0  0  0  0  0
   56.6149   -4.1772   -5.5428 H   0  0  0  0  0  0  0  0  0  0  0  0
   51.9447   -2.5683   -9.4169 N   0  0  0  0  0  0  0  0  0  0  0  0
   52.9720   -3.3898   -8.8882 C   0  0  0  0  0  0  0  0  0  0  0  0
   54.1318   -3.4942   -9.5617 N   0  0  0  0  0  0  0  0  0  0  0  0
   55.1451   -4.2590   -9.1104 C   0  0  0  0  0  0  0  0  0  0  0  0
   55.0219   -4.9465   -7.9604 N   0  0  0  0  0  0  0  0  0  0  0  0
   53.8925   -4.8932   -7.2300 C   0  0  0  0  0  0  0  0  0  0  0  0
   53.5237   -5.4710   -6.0725 N   0  0  0  0  0  0  0  0  0  0  0  0
   52.2711   -5.0404   -5.8359 C   0  0  0  0  0  0  0  0  0  0  0  0
   51.8713   -4.2071   -6.8345 N   0  0  0  0  0  0  0  0  0  0  0  0
   52.8590   -4.0998   -7.7110 C   0  0  0  0  0  0  0  0  0  0  0  0
   51.1713   -2.9230  -10.0112 H   0  0  0  0  0  0  0  0  0  0  0  0
   51.9579   -1.5511   -9.2031 H   0  0  0  0  0  0  0  0  0  0  0  0
   54.9353   -8.0208   -2.7301 C   0  0  0  0  0  0  0  0  0  0  0  0
   55.4434   -8.2995   -1.4740 O   0  0  0  0  0  0  0  0  0  0  0  0
   54.9841   -8.9093   -3.6259 O   0  0  0  0  0  0  0  0  0  0  0  0
   54.8847   -8.5192   -0.6804 H   0  0  0  0  0  0  0  0  0  0  0  0
 10 11  1  0  0  0
 11 12  2  0  0  0
 12 13  1  0  0  0
 13 14  2  0  0  0
 14 15  1  0  0  0
 15 16  1  0  0  0
 16 17  1  0  0  0
 17 18  2  0  0  0
 18 19  1  0  0  0
 16  1  1  0  0  0
  1  2  1  0  0  0
  2  3  1  0  0  0
  3  4  1  0  0  0
  4  5  1  0  0  0
  4  6  1  0  0  0
  6  7  1  0  0  0
  3 22  1  0  0  0
 22 23  1  0  0  0
 22 24  2  0  0  0
 19 11  1  0  0  0
  6  1  1  0  0  0
 19 15  2  0  0  0
 10 20  1  0  0  0
 10 21  1  0  0  0
  5  8  1  0  0  0
  7  9  1  0  0  0
 23 25  1  0  0  0
M  END
> <minimizedAffinity>
-6.32497

> <CNNscore>
0.3741329312

> <CNNaffinity>
4.3714876175

> <CNN_VS>
1.6355174780

> <CNNaffinity_variance>
0.2387349904

$$$$
[H]OC(=O)[C@]1([H])O[C@@]([H])(n2c([H])nc3c(N([H])[H])nc([H])nc32)[C@@]([H])(O[H])[C@]1([H])O[H]


 25 27  0  0  0  0  0  0  0  0999 V2000
   55.1022   -5.5299   -5.0584 C   0  0  0  0  0  0  0  0  0  0  0  0
   56.0284   -5.1061   -4.1533 O   0  0  0  0  0  0  0  0  0  0  0  0
   56.2789   -6.1131   -3.2496 C   0  0  0  0  0  0  0  0  0  0  0  0
   55.8933   -7.4097   -3.8837 C   0  0  0  0  0  0  0  0  0  0  0  0
   55.3145   -8.2706   -2.9240 O   0  0  0  0  0  0  0  0  0  0  0  0
   54.8771   -6.9916   -4.9069 C   0  0  0  0  0  0  0  0  0  0  0  0
   55.0630   -7.7078   -6.0943 O   0  0  0  0  0  0  0  0  0  0  0  0
   54.6921   -8.8626   -3.4100 H   0  0  0  0  0  0  0  0  0  0  0  0
   54.3611   -8.3825   -6.2424 H   0  0  0  0  0  0  0  0  0  0  0  0
   55.8502   -3.8211  -10.8908 N   0  0  0  0  0  0  0  0  0  0  0  0
   55.0940   -3.9986   -9.7049 C   0  0  0  0  0  0  0  0  0  0  0  0
   53.7985   -3.6361   -9.6999 N   0  0  0  0  0  0  0  0  0  0  0  0
   53.0282   -3.7801   -8.6040 C   0  0  0  0  0  0  0  0  0  0  0  0
   53.5407   -4.2966   -7.4722 N   0  0  0  0  0  0  0  0  0  0  0  0
   54.8281   -4.6827   -7.3987 C   0  0  0  0  0  0  0  0  0  0  0  0
   55.5680   -5.2162   -6.4099 N   0  0  0  0  0  0  0  0  0  0  0  0
   56.7965   -5.3902   -6.9305 C   0  0  0  0  0  0  0  0  0  0  0  0
   56.8152   -4.9697   -8.2244 N   0  0  0  0  0  0  0  0  0  0  0  0
   55.6066   -4.5266   -8.5382 C   0  0  0  0  0  0  0  0  0  0  0  0
   56.4378   -2.9869  -11.0803 H   0  0  0  0  0  0  0  0  0  0  0  0
   55.8211   -4.5630  -11.6183 H   0  0  0  0  0  0  0  0  0  0  0  0
   55.4870   -5.8485   -2.0214 C   0  0  0  0  0  0  0  0  0  0  0  0
   54.4499   -4.9332   -2.0104 O   0  0  0  0  0  0  0  0  0  0  0  0
   55.7678   -6.4747   -0.9615 O   0  0  0  0  0  0  0  0  0  0  0  0
   53.5452   -5.1079   -2.3863 H   0  0  0  0  0  0  0  0  0  0  0  0
 10 11  1  0  0  0
 11 12  2  0  0  0
 12 13  1  0  0  0
 13 14  2  0  0  0
 14 15  1  0  0  0
 15 16  1  0  0  0
 16 17  1  0  0  0
 17 18  2  0  0  0
 18 19  1  0  0  0
 16  1  1  0  0  0
  1  2  1  0  0  0
  2  3  1  0  0  0
  3  4  1  0  0  0
  4  5  1  0  0  0
  4  6  1  0  0  0
  6  7  1  0  0  0
  3 22  1  0  0  0
 22 23  1  0  0  0
 22 24  2  0  0  0
 19 11  1  0  0  0
  6  1  1  0  0  0
 19 15  2  0  0  0
 10 20  1  0  0  0
 10 21  1  0  0  0
  5  8  1  0  0  0
  7  9  1  0  0  0
 23 25  1  0  0  0
M  END
> <minimizedAffinity>
-6.82221

> <CNNscore>
0.3608240783

> <CNNaffinity>
4.2565460205

> <CNN_VS>
1.5358643532

> <CNNaffinity_variance>
0.5524638891

$$$$
[H]OC(=O)[C@]1([H])O[C@@]([H])(n2c([H])nc3c(N([H])[H])nc([H])nc32)[C@@]([H])(O[H])[C@]1([H])O[H]


 25 27  0  0  0  0  0  0  0  0999 V2000
   53.9826   -6.5054   -5.1736 C   0  0  0  0  0  0  0  0  0  0  0  0
   53.3378   -6.6728   -3.9849 O   0  0  0  0  0  0  0  0  0  0  0  0
   54.2216   -6.4623   -2.9515 C   0  0  0  0  0  0  0  0  0  0  0  0
   55.3474   -5.6274   -3.4689 C   0  0  0  0  0  0  0  0  0  0  0  0
   56.5690   -6.0415   -2.8915 O   0  0  0  0  0  0  0  0  0  0  0  0
   55.3282   -5.9173   -4.9419 C   0  0  0  0  0  0  0  0  0  0  0  0
   55.5536   -4.7435   -5.6691 O   0  0  0  0  0  0  0  0  0  0  0  0
   57.2795   -5.8266   -3.5420 H   0  0  0  0  0  0  0  0  0  0  0  0
   56.4478   -4.7200   -6.0809 H   0  0  0  0  0  0  0  0  0  0  0  0
   49.8289   -2.8587   -7.8086 N   0  0  0  0  0  0  0  0  0  0  0  0
   50.3384   -3.6439   -6.7440 C   0  0  0  0  0  0  0  0  0  0  0  0
   49.6239   -3.7410   -5.6084 N   0  0  0  0  0  0  0  0  0  0  0  0
   50.0551   -4.4720   -4.5620 C   0  0  0  0  0  0  0  0  0  0  0  0
   51.2259   -5.1319   -4.6263 N   0  0  0  0  0  0  0  0  0  0  0  0
   51.9974   -5.0838   -5.7282 C   0  0  0  0  0  0  0  0  0  0  0  0
   53.1823   -5.6392   -6.0401 N   0  0  0  0  0  0  0  0  0  0  0  0
   53.4558   -5.2293   -7.2922 C   0  0  0  0  0  0  0  0  0  0  0  0
   52.4527   -4.4309   -7.7479 N   0  0  0  0  0  0  0  0  0  0  0  0
   51.5366   -4.3254   -6.7966 C   0  0  0  0  0  0  0  0  0  0  0  0
   50.0860   -1.8656   -7.9668 H   0  0  0  0  0  0  0  0  0  0  0  0
   49.1589   -3.2929   -8.4742 H   0  0  0  0  0  0  0  0  0  0  0  0
   54.6984   -7.7824   -2.4661 C   0  0  0  0  0  0  0  0  0  0  0  0
   54.9243   -8.8357   -3.3340 O   0  0  0  0  0  0  0  0  0  0  0  0
   54.9023   -7.9468   -1.2310 O   0  0  0  0  0  0  0  0  0  0  0  0
   55.7265   -8.9183   -3.9170 H   0  0  0  0  0  0  0  0  0  0  0  0
 10 11  1  0  0  0
 11 12  2  0  0  0
 12 13  1  0  0  0
 13 14  2  0  0  0
 14 15  1  0  0  0
 15 16  1  0  0  0
 16 17  1  0  0  0
 17 18  2  0  0  0
 18 19  1  0  0  0
 16  1  1  0  0  0
  1  2  1  0  0  0
  2  3  1  0  0  0
  3  4  1  0  0  0
  4  5  1  0  0  0
  4  6  1  0  0  0
  6  7  1  0  0  0
  3 22  1  0  0  0
 22 23  1  0  0  0
 22 24  2  0  0  0
 19 11  1  0  0  0
  6  1  1  0  0  0
 19 15  2  0  0  0
 10 20  1  0  0  0
 10 21  1  0  0  0
  5  8  1  0  0  0
  7  9  1  0  0  0
 23 25  1  0  0  0
M  END
> <minimizedAffinity>
-6.82360

> <CNNscore>
0.3207220733

> <CNNaffinity>
4.4452867508

> <CNN_VS>
1.4257016182

> <CNNaffinity_variance>
0.3714023232

$$$$
[H]OC(=O)[C@]1([H])O[C@@]([H])(n2c([H])nc3c(N([H])[H])nc([H])nc32)[C@@]([H])(O[H])[C@]1([H])O[H]


 25 27  0  0  0  0  0  0  0  0999 V2000
   53.2537   -4.3739   -7.9577 C   0  0  0  0  0  0  0  0  0  0  0  0
   54.2788   -4.1449   -7.0898 O   0  0  0  0  0  0  0  0  0  0  0  0
   55.3769   -3.6961   -7.7870 C   0  0  0  0  0  0  0  0  0  0  0  0
   54.8997   -3.1213   -9.0808 C   0  0  0  0  0  0  0  0  0  0  0  0
   55.8127   -3.4231  -10.1165 O   0  0  0  0  0  0  0  0  0  0  0  0
   53.5933   -3.8286   -9.2984 C   0  0  0  0  0  0  0  0  0  0  0  0
   52.6363   -2.9360   -9.7933 O   0  0  0  0  0  0  0  0  0  0  0  0
   55.2932   -3.4530  -10.9551 H   0  0  0  0  0  0  0  0  0  0  0  0
   52.4321   -3.0899  -10.7442 H   0  0  0  0  0  0  0  0  0  0  0  0
   48.2203   -2.6858   -4.9063 N   0  0  0  0  0  0  0  0  0  0  0  0
   49.3538   -3.5062   -5.1343 C   0  0  0  0  0  0  0  0  0  0  0  0
   49.5938   -4.5303   -4.2957 N   0  0  0  0  0  0  0  0  0  0  0  0
   50.6543   -5.3450   -4.4600 C   0  0  0  0  0  0  0  0  0  0  0  0
   51.5113   -5.1531   -5.4794 N   0  0  0  0  0  0  0  0  0  0  0  0
   51.3386   -4.1501   -6.3602 C   0  0  0  0  0  0  0  0  0  0  0  0
   52.0341   -3.7517   -7.4406 N   0  0  0  0  0  0  0  0  0  0  0  0
   51.3733   -2.6834   -7.9229 C   0  0  0  0  0  0  0  0  0  0  0  0
   50.2835   -2.4252   -7.1503 N   0  0  0  0  0  0  0  0  0  0  0  0
   50.2400   -3.3207   -6.1749 C   0  0  0  0  0  0  0  0  0  0  0  0
   48.2510   -1.7947   -4.3751 H   0  0  0  0  0  0  0  0  0  0  0  0
   47.3013   -2.9851   -5.2889 H   0  0  0  0  0  0  0  0  0  0  0  0
   56.2953   -4.8428   -8.0041 C   0  0  0  0  0  0  0  0  0  0  0  0
   57.5362   -4.6768   -8.5924 O   0  0  0  0  0  0  0  0  0  0  0  0
   55.9340   -5.9974   -7.6426 O   0  0  0  0  0  0  0  0  0  0  0  0
   58.3332   -4.3092   -8.1236 H   0  0  0  0  0  0  0  0  0  0  0  0
 10 11  1  0  0  0
 11 12  2  0  0  0
 12 13  1  0  0  0
 13 14  2  0  0  0
 14 15  1  0  0  0
 15 16  1  0  0  0
 16 17  1  0  0  0
 17 18  2  0  0  0
 18 19  1  0  0  0
 16  1  1  0  0  0
  1  2  1  0  0  0
  2  3  1  0  0  0
  3  4  1  0  0  0
  4  5  1  0  0  0
  4  6  1  0  0  0
  6  7  1  0  0  0
  3 22  1  0  0  0
 22 23  1  0  0  0
 22 24  2  0  0  0
 19 11  1  0  0  0
  6  1  1  0  0  0
 19 15  2  0  0  0
 10 20  1  0  0  0
 10 21  1  0  0  0
  5  8  1  0  0  0
  7  9  1  0  0  0
 23 25  1  0  0  0
M  END
> <minimizedAffinity>
-7.85796

> <CNNscore>
0.3097912371

> <CNNaffinity>
4.5980086327

> <CNN_VS>
1.4244227409

> <CNNaffinity_variance>
0.3340497613

$$$$
[H]OC(=O)[C@]1([H])O[C@@]([H])(n2c([H])nc3c(N([H])[H])nc([H])nc32)[C@@]([H])(O[H])[C@]1([H])O[H]


 25 27  0  0  0  0  0  0  0  0999 V2000
   54.7242   -4.9125   -6.0233 C   0  0  0  0  0  0  0  0  0  0  0  0
   55.9659   -4.8407   -5.4666 O   0  0  0  0  0  0  0  0  0  0  0  0
   56.2306   -6.0074   -4.7869 C   0  0  0  0  0  0  0  0  0  0  0  0
   55.3505   -7.0777   -5.3455 C   0  0  0  0  0  0  0  0  0  0  0  0
   54.9119   -7.9383   -4.3138 O   0  0  0  0  0  0  0  0  0  0  0  0
   54.2002   -6.2997   -5.9162 C   0  0  0  0  0  0  0  0  0  0  0  0
   53.8113   -6.8425   -7.1456 O   0  0  0  0  0  0  0  0  0  0  0  0
   54.0394   -8.3022   -4.5974 H   0  0  0  0  0  0  0  0  0  0  0  0
   52.9533   -7.3229   -7.0921 H   0  0  0  0  0  0  0  0  0  0  0  0
   56.2024   -3.6655  -11.8333 N   0  0  0  0  0  0  0  0  0  0  0  0
   56.4586   -4.1859  -10.5397 C   0  0  0  0  0  0  0  0  0  0  0  0
   57.6507   -4.7588  -10.2943 N   0  0  0  0  0  0  0  0  0  0  0  0
   57.9535   -5.2713   -9.0856 C   0  0  0  0  0  0  0  0  0  0  0  0
   57.0604   -5.2228   -8.0803 N   0  0  0  0  0  0  0  0  0  0  0  0
   55.8466   -4.6658   -8.2479 C   0  0  0  0  0  0  0  0  0  0  0  0
   54.7972   -4.4944   -7.4238 N   0  0  0  0  0  0  0  0  0  0  0  0
   53.8584   -3.8701   -8.1583 C   0  0  0  0  0  0  0  0  0  0  0  0
   54.3220   -3.6585   -9.4199 N   0  0  0  0  0  0  0  0  0  0  0  0
   55.5525   -4.1429   -9.5005 C   0  0  0  0  0  0  0  0  0  0  0  0
   55.7163   -4.1951  -12.5819 H   0  0  0  0  0  0  0  0  0  0  0  0
   56.5152   -2.6993  -12.0546 H   0  0  0  0  0  0  0  0  0  0  0  0
   55.9653   -5.7797   -3.3435 C   0  0  0  0  0  0  0  0  0  0  0  0
   55.2473   -4.6826   -2.9025 O   0  0  0  0  0  0  0  0  0  0  0  0
   56.4062   -6.6080   -2.4987 O   0  0  0  0  0  0  0  0  0  0  0  0
   54.2565   -4.6053   -2.9523 H   0  0  0  0  0  0  0  0  0  0  0  0
 10 11  1  0  0  0
 11 12  2  0  0  0
 12 13  1  0  0  0
 13 14  2  0  0  0
 14 15  1  0  0  0
 15 16  1  0  0  0
 16 17  1  0  0  0
 17 18  2  0  0  0
 18 19  1  0  0  0
 16  1  1  0  0  0
  1  2  1  0  0  0
  2  3  1  0  0  0
  3  4  1  0  0  0
  4  5  1  0  0  0
  4  6  1  0  0  0
  6  7  1  0  0  0
  3 22  1  0  0  0
 22 23  1  0  0  0
 22 24  2  0  0  0
 19 11  1  0  0  0
  6  1  1  0  0  0
 19 15  2  0  0  0
 10 20  1  0  0  0
 10 21  1  0  0  0
  5  8  1  0  0  0
  7  9  1  0  0  0
 23 25  1  0  0  0
M  END
> <minimizedAffinity>
-6.86963

> <CNNscore>
0.3011741340

> <CNNaffinity>
4.1860370636

> <CNN_VS>
1.2607260942

> <CNNaffinity_variance>
0.5386849642

$$$$
[H]OC(=O)[C@]1([H])O[C@@]([H])(n2c([H])nc3c(N([H])[H])nc([H])nc32)[C@@]([H])(O[H])[C@]1([H])O[H]


 25 27  0  0  0  0  0  0  0  0999 V2000
   52.9756   -6.8483   -3.6668 C   0  0  0  0  0  0  0  0  0  0  0  0
   51.6178   -6.8396   -3.5524 O   0  0  0  0  0  0  0  0  0  0  0  0
   51.2649   -6.3081   -2.3333 C   0  0  0  0  0  0  0  0  0  0  0  0
   52.4016   -5.4684   -1.8486 C   0  0  0  0  0  0  0  0  0  0  0  0
   52.5424   -5.5969   -0.4483 O   0  0  0  0  0  0  0  0  0  0  0  0
   53.5826   -6.0626   -2.5602 C   0  0  0  0  0  0  0  0  0  0  0  0
   54.4400   -5.0500   -3.0039 O   0  0  0  0  0  0  0  0  0  0  0  0
   53.4942   -5.4378   -0.2414 H   0  0  0  0  0  0  0  0  0  0  0  0
   55.2725   -5.0035   -2.4800 H   0  0  0  0  0  0  0  0  0  0  0  0
   53.4472   -3.8995   -9.0127 N   0  0  0  0  0  0  0  0  0  0  0  0
   52.7932   -4.2403   -7.8020 C   0  0  0  0  0  0  0  0  0  0  0  0
   51.5964   -3.6884   -7.5323 N   0  0  0  0  0  0  0  0  0  0  0  0
   50.9258   -3.9728   -6.3989 C   0  0  0  0  0  0  0  0  0  0  0  0
   51.4420   -4.8266   -5.4962 N   0  0  0  0  0  0  0  0  0  0  0  0
   52.6342   -5.4191   -5.6943 C   0  0  0  0  0  0  0  0  0  0  0  0
   53.3550   -6.2903   -4.9654 N   0  0  0  0  0  0  0  0  0  0  0  0
   54.4706   -6.5245   -5.6805 C   0  0  0  0  0  0  0  0  0  0  0  0
   54.4392   -5.8072   -6.8362 N   0  0  0  0  0  0  0  0  0  0  0  0
   53.3108   -5.1138   -6.8682 C   0  0  0  0  0  0  0  0  0  0  0  0
   54.1598   -3.1491   -9.0915 H   0  0  0  0  0  0  0  0  0  0  0  0
   53.2065   -4.4253   -9.8764 H   0  0  0  0  0  0  0  0  0  0  0  0
   50.9751   -7.4267   -1.4003 C   0  0  0  0  0  0  0  0  0  0  0  0
   49.9398   -7.3583   -0.4854 O   0  0  0  0  0  0  0  0  0  0  0  0
   51.6917   -8.4654   -1.4438 O   0  0  0  0  0  0  0  0  0  0  0  0
   48.9803   -7.4878   -0.7152 H   0  0  0  0  0  0  0  0  0  0  0  0
 10 11  1  0  0  0
 11 12  2  0  0  0
 12 13  1  0  0  0
 13 14  2  0  0  0
 14 15  1  0  0  0
 15 16  1  0  0  0
 16 17  1  0  0  0
 17 18  2  0  0  0
 18 19  1  0  0  0
 16  1  1  0  0  0
  1  2  1  0  0  0
  2  3  1  0  0  0
  3  4  1  0  0  0
  4  5  1  0  0  0
  4  6  1  0  0  0
  6  7  1  0  0  0
  3 22  1  0  0  0
 22 23  1  0  0  0
 22 24  2  0  0  0
 19 11  1  0  0  0
  6  1  1  0  0  0
 19 15  2  0  0  0
 10 20  1  0  0  0
 10 21  1  0  0  0
  5  8  1  0  0  0
  7  9  1  0  0  0
 23 25  1  0  0  0
M  END
> <minimizedAffinity>
-7.08619

> <CNNscore>
0.2628976107

> <CNNaffinity>
4.3521566391

> <CNN_VS>
1.1441715956

> <CNNaffinity_variance>
0.4725802839

$$$$
[H]OC(=O)[C@]1([H])O[C@@]([H])(n2c([H])nc3c(N([H])[H])nc([H])nc32)[C@@]([H])(O[H])[C@]1([H])O[H]


 25 27  0  0  0  0  0  0  0  0999 V2000
   54.6573   -5.4795   -5.1078 C   0  0  0  0  0  0  0  0  0  0  0  0
   55.6741   -4.8254   -4.4794 O   0  0  0  0  0  0  0  0  0  0  0  0
   56.4192   -5.7270   -3.7546 C   0  0  0  0  0  0  0  0  0  0  0  0
   56.1965   -7.0847   -4.3370 C   0  0  0  0  0  0  0  0  0  0  0  0
   56.1561   -8.0563   -3.3115 O   0  0  0  0  0  0  0  0  0  0  0  0
   54.8544   -6.9489   -4.9963 C   0  0  0  0  0  0  0  0  0  0  0  0
   54.8538   -7.6044   -6.2323 O   0  0  0  0  0  0  0  0  0  0  0  0
   55.5845   -8.7918   -3.6376 H   0  0  0  0  0  0  0  0  0  0  0  0
   54.3284   -8.4372   -6.2180 H   0  0  0  0  0  0  0  0  0  0  0  0
   55.7256   -4.0054  -10.9544 N   0  0  0  0  0  0  0  0  0  0  0  0
   56.1111   -4.4472   -9.6636 C   0  0  0  0  0  0  0  0  0  0  0  0
   57.4019   -4.7527   -9.4401 N   0  0  0  0  0  0  0  0  0  0  0  0
   57.8296   -5.1776   -8.2352 C   0  0  0  0  0  0  0  0  0  0  0  0
   56.9661   -5.3091   -7.2116 N   0  0  0  0  0  0  0  0  0  0  0  0
   55.6589   -5.0230   -7.3569 C   0  0  0  0  0  0  0  0  0  0  0  0
   54.6131   -5.0693   -6.5119 N   0  0  0  0  0  0  0  0  0  0  0  0
   53.5494   -4.6647   -7.2300 C   0  0  0  0  0  0  0  0  0  0  0  0
   53.9333   -4.3724   -8.5022 N   0  0  0  0  0  0  0  0  0  0  0  0
   55.2367   -4.5865   -8.6059 C   0  0  0  0  0  0  0  0  0  0  0  0
   55.3482   -4.6332  -11.6897 H   0  0  0  0  0  0  0  0  0  0  0  0
   55.8226   -2.9972  -11.1876 H   0  0  0  0  0  0  0  0  0  0  0  0
   55.9834   -5.6625   -2.3363 C   0  0  0  0  0  0  0  0  0  0  0  0
   54.8047   -5.0395   -1.9675 O   0  0  0  0  0  0  0  0  0  0  0  0
   56.7070   -6.1893   -1.4458 O   0  0  0  0  0  0  0  0  0  0  0  0
   53.9009   -5.4403   -2.0799 H   0  0  0  0  0  0  0  0  0  0  0  0
 10 11  1  0  0  0
 11 12  2  0  0  0
 12 13  1  0  0  0
 13 14  2  0  0  0
 14 15  1  0  0  0
 15 16  1  0  0  0
 16 17  1  0  0  0
 17 18  2  0  0  0
 18 19  1  0  0  0
 16  1  1  0  0  0
  1  2  1  0  0  0
  2  3  1  0  0  0
  3  4  1  0  0  0
  4  5  1  0  0  0
  4  6  1  0  0  0
  6  7  1  0  0  0
  3 22  1  0  0  0
 22 23  1  0  0  0
 22 24  2  0  0  0
 19 11  1  0  0  0
  6  1  1  0  0  0
 19 15  2  0  0  0
 10 20  1  0  0  0
 10 21  1  0  0  0
  5  8  1  0  0  0
  7  9  1  0  0  0
 23 25  1  0  0  0
M  END
> <minimizedAffinity>
-6.56721

> <CNNscore>
0.2343270034

> <CNNaffinity>
3.9712862968

> <CNN_VS>
0.9305796027

> <CNNaffinity_variance>
0.6243351102

$$$$
[H]OC(=O)[C@]1([H])O[C@@]([H])(n2c([H])nc3c(N([H])[H])nc([H])nc32)[C@@]([H])(O[H])[C@]1([H])O[H]


 25 27  0  0  0  0  0  0  0  0999 V2000
   56.4567   -6.4406   -4.5072 C   0  0  0  0  0  0  0  0  0  0  0  0
   56.1257   -7.7180   -4.1675 O   0  0  0  0  0  0  0  0  0  0  0  0
   56.2447   -7.8745   -2.8056 C   0  0  0  0  0  0  0  0  0  0  0  0
   56.1507   -6.5233   -2.1751 C   0  0  0  0  0  0  0  0  0  0  0  0
   57.0335   -6.4344   -1.0751 O   0  0  0  0  0  0  0  0  0  0  0  0
   56.5846   -5.6073   -3.2827 C   0  0  0  0  0  0  0  0  0  0  0  0
   55.7826   -4.4612   -3.3050 O   0  0  0  0  0  0  0  0  0  0  0  0
   57.2851   -5.4841   -0.9872 H   0  0  0  0  0  0  0  0  0  0  0  0
   56.2580   -3.6610   -2.9832 H   0  0  0  0  0  0  0  0  0  0  0  0
   53.1585   -3.8841   -8.9886 N   0  0  0  0  0  0  0  0  0  0  0  0
   54.3687   -4.3054   -8.3823 C   0  0  0  0  0  0  0  0  0  0  0  0
   55.5280   -4.0963   -9.0317 N   0  0  0  0  0  0  0  0  0  0  0  0
   56.7103   -4.4739   -8.5075 C   0  0  0  0  0  0  0  0  0  0  0  0
   56.7629   -5.0773   -7.3060 N   0  0  0  0  0  0  0  0  0  0  0  0
   55.6462   -5.3211   -6.5952 C   0  0  0  0  0  0  0  0  0  0  0  0
   55.4312   -5.8959   -5.3981 N   0  0  0  0  0  0  0  0  0  0  0  0
   54.0991   -5.8574   -5.2119 C   0  0  0  0  0  0  0  0  0  0  0  0
   53.4990   -5.2662   -6.2804 N   0  0  0  0  0  0  0  0  0  0  0  0
   54.4369   -4.9249   -7.1516 C   0  0  0  0  0  0  0  0  0  0  0  0
   52.5536   -4.5044   -9.5600 H   0  0  0  0  0  0  0  0  0  0  0  0
   52.8506   -2.8998   -8.8594 H   0  0  0  0  0  0  0  0  0  0  0  0
   57.5509   -8.5211   -2.5204 C   0  0  0  0  0  0  0  0  0  0  0  0
   58.7126   -8.1201   -3.1556 O   0  0  0  0  0  0  0  0  0  0  0  0
   57.6018   -9.4597   -1.6774 O   0  0  0  0  0  0  0  0  0  0  0  0
   59.2259   -7.3012   -2.9188 H   0  0  0  0  0  0  0  0  0  0  0  0
 10 11  1  0  0  0
 11 12  2  0  0  0
 12 13  1  0  0  0
 13 14  2  0  0  0
 14 15  1  0  0  0
 15 16  1  0  0  0
 16 17  1  0  0  0
 17 18  2  0  0  0
 18 19  1  0  0  0
 16  1  1  0  0  0
  1  2  1  0  0  0
  2  3  1  0  0  0
  3  4  1  0  0  0
  4  5  1  0  0  0
  4  6  1  0  0  0
  6  7  1  0  0  0
  3 22  1  0  0  0
 22 23  1  0  0  0
 22 24  2  0  0  0
 19 11  1  0  0  0
  6  1  1  0  0  0
 19 15  2  0  0  0
 10 20  1  0  0  0
 10 21  1  0  0  0
  5  8  1  0  0  0
  7  9  1  0  0  0
 23 25  1  0  0  0
M  END
> <minimizedAffinity>
-5.96059

> <CNNscore>
0.2323083431

> <CNNaffinity>
4.0825653076

> <CNN_VS>
0.9484139681

> <CNNaffinity_variance>
0.2337662280

$$$$
[H]Oc1c([H])c([H])c2c(c1[H])C([H])([H])C([H])([H])[C@]1([H])[C@]2([H])C([H])([H])C([H])([H])[C@]2(C([H])([H])[H])C([H])=C([H])C([H])([H])[C@]21[H]


 20 23  0  0  0  0  0  0  0  0999 V2000
   51.0658   -6.1642   -7.0964 C   0  0  0  0  0  0  0  0  0  0  0  0
   51.5768   -4.9701   -6.3286 C   0  0  0  0  0  0  0  0  0  0  0  0
   51.6662   -3.7911   -7.2465 C   0  0  0  0  0  0  0  0  0  0  0  0
   52.7710   -3.9868   -8.2597 C   0  0  0  0  0  0  0  0  0  0  0  0
   54.0617   -4.3944   -7.6214 C   0  0  0  0  0  0  0  0  0  0  0  0
   53.8565   -5.6511   -6.7600 C   0  0  0  0  0  0  0  0  0  0  0  0
   55.1253   -6.2716   -6.3041 C   0  0  0  0  0  0  0  0  0  0  0  0
   56.3823   -5.5768   -6.7013 C   0  0  0  0  0  0  0  0  0  0  0  0
   56.3520   -5.0950   -8.1060 C   0  0  0  0  0  0  0  0  0  0  0  0
   57.4467   -5.2249   -8.9495 C   0  0  0  0  0  0  0  0  0  0  0  0
   57.3848   -4.7653  -10.2526 C   0  0  0  0  0  0  0  0  0  0  0  0
   58.4938   -4.8947  -11.1137 O   0  0  0  0  0  0  0  0  0  0  0  0
   56.2221   -4.1844  -10.6794 C   0  0  0  0  0  0  0  0  0  0  0  0
   55.1226   -4.0584   -9.8190 C   0  0  0  0  0  0  0  0  0  0  0  0
   55.1776   -4.5117   -8.5268 C   0  0  0  0  0  0  0  0  0  0  0  0
   52.9320   -5.2217   -5.7065 C   0  0  0  0  0  0  0  0  0  0  0  0
   52.5533   -6.1733   -4.6284 C   0  0  0  0  0  0  0  0  0  0  0  0
   51.2942   -5.4855   -4.1501 C   0  0  0  0  0  0  0  0  0  0  0  0
   50.7526   -4.8013   -5.1423 C   0  0  0  0  0  0  0  0  0  0  0  0
   59.1653   -4.1209  -11.1230 H   0  0  0  0  0  0  0  0  0  0  0  0
  2  1  1  0  0  0
  2  3  1  0  0  0
  3  4  1  0  0  0
  4  5  1  0  0  0
  5  6  1  0  0  0
  6  7  1  0  0  0
  7  8  1  0  0  0
  8  9  1  0  0  0
  9 10  2  0  0  0
 10 11  1  0  0  0
 11 12  1  0  0  0
 11 13  2  0  0  0
 13 14  1  0  0  0
 14 15  2  0  0  0
  6 16  1  0  0  0
 16 17  1  0  0  0
 17 18  1  0  0  0
 18 19  2  0  0  0
 16  2  1  0  0  0
 19  2  1  0  0  0
 15  5  1  0  0  0
 15  9  1  0  0  0
 12 20  1  0  0  0
M  END
> <minimizedAffinity>
-10.67930

> <CNNscore>
0.6386686563

> <CNNaffinity>
6.3557157516

> <CNN_VS>
4.0591964722

> <CNNaffinity_variance>
0.1813357770

$$$$
[H]Oc1c([H])c([H])c2c(c1[H])C([H])([H])C([H])([H])[C@]1([H])[C@]2([H])C([H])([H])C([H])([H])[C@]2(C([H])([H])[H])C([H])=C([H])C([H])([H])[C@]21[H]


 20 23  0  0  0  0  0  0  0  0999 V2000
   56.4136   -5.1811  -12.2919 C   0  0  0  0  0  0  0  0  0  0  0  0
   56.9830   -4.0663  -11.4496 C   0  0  0  0  0  0  0  0  0  0  0  0
   57.9452   -3.2657  -12.2706 C   0  0  0  0  0  0  0  0  0  0  0  0
   59.1874   -4.0724  -12.5734 C   0  0  0  0  0  0  0  0  0  0  0  0
   59.7693   -4.7018  -11.3467 C   0  0  0  0  0  0  0  0  0  0  0  0
   58.7070   -5.5492  -10.6277 C   0  0  0  0  0  0  0  0  0  0  0  0
   59.2624   -6.4121   -9.5555 C   0  0  0  0  0  0  0  0  0  0  0  0
   60.7276   -6.3004   -9.3081 C   0  0  0  0  0  0  0  0  0  0  0  0
   61.5167   -6.2198  -10.5640 C   0  0  0  0  0  0  0  0  0  0  0  0
   62.7041   -6.9193  -10.7299 C   0  0  0  0  0  0  0  0  0  0  0  0
   63.4145   -6.8220  -11.9127 C   0  0  0  0  0  0  0  0  0  0  0  0
   64.6213   -7.5303  -12.0867 O   0  0  0  0  0  0  0  0  0  0  0  0
   62.9145   -6.0225  -12.9039 C   0  0  0  0  0  0  0  0  0  0  0  0
   61.7143   -5.3207  -12.7256 C   0  0  0  0  0  0  0  0  0  0  0  0
   61.0058   -5.4129  -11.5561 C   0  0  0  0  0  0  0  0  0  0  0  0
   57.6882   -4.5795  -10.2143 C   0  0  0  0  0  0  0  0  0  0  0  0
   56.5200   -5.0364   -9.4159 C   0  0  0  0  0  0  0  0  0  0  0  0
   55.5927   -3.8719   -9.6831 C   0  0  0  0  0  0  0  0  0  0  0  0
   55.8780   -3.3314  -10.8545 C   0  0  0  0  0  0  0  0  0  0  0  0
   65.4829   -7.0524  -11.8057 H   0  0  0  0  0  0  0  0  0  0  0  0
  2  1  1  0  0  0
  2  3  1  0  0  0
  3  4  1  0  0  0
  4  5  1  0  0  0
  5  6  1  0  0  0
  6  7  1  0  0  0
  7  8  1  0  0  0
  8  9  1  0  0  0
  9 10  2  0  0  0
 10 11  1  0  0  0
 11 12  1  0  0  0
 11 13  2  0  0  0
 13 14  1  0  0  0
 14 15  2  0  0  0
  6 16  1  0  0  0
 16 17  1  0  0  0
 17 18  1  0  0  0
 18 19  2  0  0  0
 16  2  1  0  0  0
 19  2  1  0  0  0
 15  5  1  0  0  0
 15  9  1  0  0  0
 12 20  1  0  0  0
M  END
> <minimizedAffinity>
-1.31171

> <CNNscore>
0.5104827881

> <CNNaffinity>
4.5151510239

> <CNN_VS>
2.3049068451

> <CNNaffinity_variance>
0.1635992825

$$$$
[H]Oc1c([H])c([H])c2c(c1[H])C([H])([H])C([H])([H])[C@]1([H])[C@]2([H])C([H])([H])C([H])([H])[C@]2(C([H])([H])[H])C([H])=C([H])C([H])([H])[C@]21[H]


 20 23  0  0  0  0  0  0  0  0999 V2000
   64.7091   -2.7648  -13.3622 C   0  0  0  0  0  0  0  0  0  0  0  0
   64.2183   -1.5145  -14.0494 C   0  0  0  0  0  0  0  0  0  0  0  0
   63.2017   -0.8385  -13.1833 C   0  0  0  0  0  0  0  0  0  0  0  0
   61.9321   -1.6563  -13.1138 C   0  0  0  0  0  0  0  0  0  0  0  0
   61.4432   -2.0626  -14.4686 C   0  0  0  0  0  0  0  0  0  0  0  0
   62.5510   -2.8037  -15.2346 C   0  0  0  0  0  0  0  0  0  0  0  0
   62.0741   -3.4663  -16.4741 C   0  0  0  0  0  0  0  0  0  0  0  0
   60.6341   -3.2832  -16.8107 C   0  0  0  0  0  0  0  0  0  0  0  0
   59.7491   -3.3925  -15.6229 C   0  0  0  0  0  0  0  0  0  0  0  0
   58.5458   -4.0832  -15.6661 C   0  0  0  0  0  0  0  0  0  0  0  0
   57.7452   -4.1658  -14.5412 C   0  0  0  0  0  0  0  0  0  0  0  0
   56.5219   -4.8661  -14.5796 O   0  0  0  0  0  0  0  0  0  0  0  0
   58.1726   -3.5511  -13.3962 C   0  0  0  0  0  0  0  0  0  0  0  0
   59.3896   -2.8564  -13.3637 C   0  0  0  0  0  0  0  0  0  0  0  0
   60.1874   -2.7709  -14.4748 C   0  0  0  0  0  0  0  0  0  0  0  0
   63.6082   -1.8022  -15.4028 C   0  0  0  0  0  0  0  0  0  0  0  0
   64.8316   -2.1475  -16.1742 C   0  0  0  0  0  0  0  0  0  0  0  0
   65.7455   -1.0635  -15.6480 C   0  0  0  0  0  0  0  0  0  0  0  0
   65.3736   -0.7165  -14.4286 C   0  0  0  0  0  0  0  0  0  0  0  0
   55.6896   -4.3296  -14.8426 H   0  0  0  0  0  0  0  0  0  0  0  0
  2  1  1  0  0  0
  2  3  1  0  0  0
  3  4  1  0  0  0
  4  5  1  0  0  0
  5  6  1  0  0  0
  6  7  1  0  0  0
  7  8  1  0  0  0
  8  9  1  0  0  0
  9 10  2  0  0  0
 10 11  1  0  0  0
 11 12  1  0  0  0
 11 13  2  0  0  0
 13 14  1  0  0  0
 14 15  2  0  0  0
  6 16  1  0  0  0
 16 17  1  0  0  0
 17 18  1  0  0  0
 18 19  2  0  0  0
 16  2  1  0  0  0
 19  2  1  0  0  0
 15  5  1  0  0  0
 15  9  1  0  0  0
 12 20  1  0  0  0
M  END
> <minimizedAffinity>
0.68037

> <CNNscore>
0.4719629288

> <CNNaffinity>
4.1237773895

> <CNN_VS>
1.9462701082

> <CNNaffinity_variance>
0.3241215050

$$$$
[H]Oc1c([H])c([H])c2c(c1[H])C([H])([H])C([H])([H])[C@]1([H])[C@]2([H])C([H])([H])C([H])([H])[C@]2(C([H])([H])[H])C([H])=C([H])C([H])([H])[C@]21[H]


 20 23  0  0  0  0  0  0  0  0999 V2000
   52.7047   -6.5368   -7.9130 C   0  0  0  0  0  0  0  0  0  0  0  0
   53.4098   -5.4144   -7.1922 C   0  0  0  0  0  0  0  0  0  0  0  0
   53.4102   -5.6920   -5.7213 C   0  0  0  0  0  0  0  0  0  0  0  0
   52.0129   -5.5753   -5.1563 C   0  0  0  0  0  0  0  0  0  0  0  0
   51.3404   -4.3015   -5.5622 C   0  0  0  0  0  0  0  0  0  0  0  0
   51.3440   -4.1617   -7.0932 C   0  0  0  0  0  0  0  0  0  0  0  0
   50.4747   -3.0666   -7.5910 C   0  0  0  0  0  0  0  0  0  0  0  0
   49.7767   -2.2529   -6.5560 C   0  0  0  0  0  0  0  0  0  0  0  0
   49.2273   -3.0795   -5.4509 C   0  0  0  0  0  0  0  0  0  0  0  0
   47.9670   -2.8468   -4.9179 C   0  0  0  0  0  0  0  0  0  0  0  0
   47.4855   -3.6357   -3.8889 C   0  0  0  0  0  0  0  0  0  0  0  0
   46.2060   -3.4038   -3.3437 O   0  0  0  0  0  0  0  0  0  0  0  0
   48.2831   -4.6425   -3.4179 C   0  0  0  0  0  0  0  0  0  0  0  0
   49.5542   -4.8687   -3.9636 C   0  0  0  0  0  0  0  0  0  0  0  0
   50.0370   -4.0905   -4.9833 C   0  0  0  0  0  0  0  0  0  0  0  0
   52.7639   -4.0708   -7.4459 C   0  0  0  0  0  0  0  0  0  0  0  0
   53.1566   -3.8543   -8.8636 C   0  0  0  0  0  0  0  0  0  0  0  0
   54.5910   -4.3256   -8.7767 C   0  0  0  0  0  0  0  0  0  0  0  0
   54.7115   -5.2190   -7.8107 C   0  0  0  0  0  0  0  0  0  0  0  0
   46.1505   -2.7533   -2.5540 H   0  0  0  0  0  0  0  0  0  0  0  0
  2  1  1  0  0  0
  2  3  1  0  0  0
  3  4  1  0  0  0
  4  5  1  0  0  0
  5  6  1  0  0  0
  6  7  1  0  0  0
  7  8  1  0  0  0
  8  9  1  0  0  0
  9 10  2  0  0  0
 10 11  1  0  0  0
 11 12  1  0  0  0
 11 13  2  0  0  0
 13 14  1  0  0  0
 14 15  2  0  0  0
  6 16  1  0  0  0
 16 17  1  0  0  0
 17 18  1  0  0  0
 18 19  2  0  0  0
 16  2  1  0  0  0
 19  2  1  0  0  0
 15  5  1  0  0  0
 15  9  1  0  0  0
 12 20  1  0  0  0
M  END
> <minimizedAffinity>
-9.95972

> <CNNscore>
0.4516099393

> <CNNaffinity>
6.3574337959

> <CNN_VS>
2.8710803986

> <CNNaffinity_variance>
0.2064366341

$$$$
[H]Oc1c([H])c([H])c2c(c1[H])C([H])([H])C([H])([H])[C@]1([H])[C@]2([H])C([H])([H])C([H])([H])[C@]2(C([H])([H])[H])C([H])=C([H])C([H])([H])[C@]21[H]


 20 23  0  0  0  0  0  0  0  0999 V2000
   54.9555   -2.3227   -8.3898 C   0  0  0  0  0  0  0  0  0  0  0  0
   54.4301   -3.5402   -9.1096 C   0  0  0  0  0  0  0  0  0  0  0  0
   53.0285   -3.2804   -9.5664 C   0  0  0  0  0  0  0  0  0  0  0  0
   52.0879   -3.2056   -8.3852 C   0  0  0  0  0  0  0  0  0  0  0  0
   52.2484   -4.3683   -7.4567 C   0  0  0  0  0  0  0  0  0  0  0  0
   53.7128   -4.4915   -7.0055 C   0  0  0  0  0  0  0  0  0  0  0  0
   53.9110   -5.4487   -5.8887 C   0  0  0  0  0  0  0  0  0  0  0  0
   52.6967   -6.1669   -5.4089 C   0  0  0  0  0  0  0  0  0  0  0  0
   51.5069   -5.2827   -5.3155 C   0  0  0  0  0  0  0  0  0  0  0  0
   50.6323   -5.3417   -4.2392 C   0  0  0  0  0  0  0  0  0  0  0  0
   49.5334   -4.5035   -4.1834 C   0  0  0  0  0  0  0  0  0  0  0  0
   48.6417   -4.5592   -3.0925 O   0  0  0  0  0  0  0  0  0  0  0  0
   49.3379   -3.6235   -5.2124 C   0  0  0  0  0  0  0  0  0  0  0  0
   50.2276   -3.5724   -6.2944 C   0  0  0  0  0  0  0  0  0  0  0  0
   51.3182   -4.4001   -6.3556 C   0  0  0  0  0  0  0  0  0  0  0  0
   54.4499   -4.7772   -8.2400 C   0  0  0  0  0  0  0  0  0  0  0  0
   55.9136   -5.0322   -8.1797 C   0  0  0  0  0  0  0  0  0  0  0  0
   56.2504   -4.7677   -9.6302 C   0  0  0  0  0  0  0  0  0  0  0  0
   55.3854   -3.9100  -10.1420 C   0  0  0  0  0  0  0  0  0  0  0  0
   47.8493   -5.2034   -3.1750 H   0  0  0  0  0  0  0  0  0  0  0  0
  2  1  1  0  0  0
  2  3  1  0  0  0
  3  4  1  0  0  0
  4  5  1  0  0  0
  5  6  1  0  0  0
  6  7  1  0  0  0
  7  8  1  0  0  0
  8  9  1  0  0  0
  9 10  2  0  0  0
 10 11  1  0  0  0
 11 12  1  0  0  0
 11 13  2  0  0  0
 13 14  1  0  0  0
 14 15  2  0  0  0
  6 16  1  0  0  0
 16 17  1  0  0  0
 17 18  1  0  0  0
 18 19  2  0  0  0
 16  2  1  0  0  0
 19  2  1  0  0  0
 15  5  1  0  0  0
 15  9  1  0  0  0
 12 20  1  0  0  0
M  END
> <minimizedAffinity>
-10.44270

> <CNNscore>
0.4230699539

> <CNNaffinity>
6.2246146202

> <CNN_VS>
2.6334474087

> <CNNaffinity_variance>
0.1656254828

$$$$
[H]Oc1c([H])c([H])c2c(c1[H])C([H])([H])C([H])([H])[C@]1([H])[C@]2([H])C([H])([H])C([H])([H])[C@]2(C([H])([H])[H])C([H])=C([H])C([H])([H])[C@]21[H]


 20 23  0  0  0  0  0  0  0  0999 V2000
   54.7811   -7.3051   -6.6571 C   0  0  0  0  0  0  0  0  0  0  0  0
   55.1856   -5.8999   -6.2854 C   0  0  0  0  0  0  0  0  0  0  0  0
   55.1452   -5.7491   -4.7966 C   0  0  0  0  0  0  0  0  0  0  0  0
   53.7195   -5.7895   -4.2952 C   0  0  0  0  0  0  0  0  0  0  0  0
   52.8243   -4.8597   -5.0526 C   0  0  0  0  0  0  0  0  0  0  0  0
   52.9016   -5.1551   -6.5593 C   0  0  0  0  0  0  0  0  0  0  0  0
   51.8579   -4.4612   -7.3543 C   0  0  0  0  0  0  0  0  0  0  0  0
   50.9371   -3.5652   -6.5994 C   0  0  0  0  0  0  0  0  0  0  0  0
   50.4998   -4.1505   -5.3061 C   0  0  0  0  0  0  0  0  0  0  0  0
   49.1857   -4.0612   -4.8680 C   0  0  0  0  0  0  0  0  0  0  0  0
   48.8118   -4.6176   -3.6581 C   0  0  0  0  0  0  0  0  0  0  0  0
   47.4784   -4.5298   -3.2082 O   0  0  0  0  0  0  0  0  0  0  0  0
   49.7688   -5.2522   -2.9144 C   0  0  0  0  0  0  0  0  0  0  0  0
   51.0929   -5.3365   -3.3666 C   0  0  0  0  0  0  0  0  0  0  0  0
   51.4697   -4.7873   -4.5644 C   0  0  0  0  0  0  0  0  0  0  0  0
   54.2915   -4.8565   -6.9168 C   0  0  0  0  0  0  0  0  0  0  0  0
   54.7247   -4.9633   -8.3352 C   0  0  0  0  0  0  0  0  0  0  0  0
   56.2168   -5.0645   -8.1102 C   0  0  0  0  0  0  0  0  0  0  0  0
   56.4562   -5.6038   -6.9280 C   0  0  0  0  0  0  0  0  0  0  0  0
   47.2350   -3.7137   -2.6385 H   0  0  0  0  0  0  0  0  0  0  0  0
  2  1  1  0  0  0
  2  3  1  0  0  0
  3  4  1  0  0  0
  4  5  1  0  0  0
  5  6  1  0  0  0
  6  7  1  0  0  0
  7  8  1  0  0  0
  8  9  1  0  0  0
  9 10  2  0  0  0
 10 11  1  0  0  0
 11 12  1  0  0  0
 11 13  2  0  0  0
 13 14  1  0  0  0
 14 15  2  0  0  0
  6 16  1  0  0  0
 16 17  1  0  0  0
 17 18  1  0  0  0
 18 19  2  0  0  0
 16  2  1  0  0  0
 19  2  1  0  0  0
 15  5  1  0  0  0
 15  9  1  0  0  0
 12 20  1  0  0  0
M  END
> <minimizedAffinity>
-7.46162

> <CNNscore>
0.3465925455

> <CNNaffinity>
6.0558805466

> <CNN_VS>
2.0989229679

> <CNNaffinity_variance>
0.2766434550

$$$$
[H]Oc1c([H])c([H])c2c(c1[H])C([H])([H])C([H])([H])[C@]1([H])[C@]2([H])C([H])([H])C([H])([H])[C@]2(C([H])([H])[H])C([H])=C([H])C([H])([H])[C@]21[H]


 20 23  0  0  0  0  0  0  0  0999 V2000
   54.8387   -8.4164   -4.9581 C   0  0  0  0  0  0  0  0  0  0  0  0
   55.2465   -7.1284   -4.2863 C   0  0  0  0  0  0  0  0  0  0  0  0
   54.1583   -6.6865   -3.3582 C   0  0  0  0  0  0  0  0  0  0  0  0
   52.9412   -6.2420   -4.1371 C   0  0  0  0  0  0  0  0  0  0  0  0
   53.2846   -5.2702   -5.2220 C   0  0  0  0  0  0  0  0  0  0  0  0
   54.3613   -5.8620   -6.1462 C   0  0  0  0  0  0  0  0  0  0  0  0
   54.5709   -5.0798   -7.3899 C   0  0  0  0  0  0  0  0  0  0  0  0
   53.7581   -3.8395   -7.5370 C   0  0  0  0  0  0  0  0  0  0  0  0
   52.3493   -4.0224   -7.1032 C   0  0  0  0  0  0  0  0  0  0  0  0
   51.2859   -3.4981   -7.8252 C   0  0  0  0  0  0  0  0  0  0  0  0
   49.9856   -3.6870   -7.3931 C   0  0  0  0  0  0  0  0  0  0  0  0
   48.9017   -3.1567   -8.1225 O   0  0  0  0  0  0  0  0  0  0  0  0
   49.7829   -4.3998   -6.2431 C   0  0  0  0  0  0  0  0  0  0  0  0
   50.8642   -4.9249   -5.5220 C   0  0  0  0  0  0  0  0  0  0  0  0
   52.1549   -4.7412   -5.9448 C   0  0  0  0  0  0  0  0  0  0  0  0
   55.5328   -6.0253   -5.2802 C   0  0  0  0  0  0  0  0  0  0  0  0
   56.8110   -6.5183   -5.8584 C   0  0  0  0  0  0  0  0  0  0  0  0
   57.4783   -6.9732   -4.5798 C   0  0  0  0  0  0  0  0  0  0  0  0
   56.5609   -7.3172   -3.6932 C   0  0  0  0  0  0  0  0  0  0  0  0
   48.5958   -2.2108   -7.8746 H   0  0  0  0  0  0  0  0  0  0  0  0
  2  1  1  0  0  0
  2  3  1  0  0  0
  3  4  1  0  0  0
  4  5  1  0  0  0
  5  6  1  0  0  0
  6  7  1  0  0  0
  7  8  1  0  0  0
  8  9  1  0  0  0
  9 10  2  0  0  0
 10 11  1  0  0  0
 11 12  1  0  0  0
 11 13  2  0  0  0
 13 14  1  0  0  0
 14 15  2  0  0  0
  6 16  1  0  0  0
 16 17  1  0  0  0
 17 18  1  0  0  0
 18 19  2  0  0  0
 16  2  1  0  0  0
 19  2  1  0  0  0
 15  5  1  0  0  0
 15  9  1  0  0  0
 12 20  1  0  0  0
M  END
> <minimizedAffinity>
-6.16738

> <CNNscore>
0.3299072385

> <CNNaffinity>
5.8653154373

> <CNN_VS>
1.9350100756

> <CNNaffinity_variance>
0.4498611391

$$$$
[H]Oc1c([H])c([H])c2c(c1[H])C([H])([H])C([H])([H])[C@]1([H])[C@]2([H])C([H])([H])C([H])([H])[C@]2(C([H])([H])[H])C([H])=C([H])C([H])([H])[C@]21[H]


 20 23  0  0  0  0  0  0  0  0999 V2000
   52.6755   -6.7607   -7.1168 C   0  0  0  0  0  0  0  0  0  0  0  0
   53.0178   -5.4005   -6.5608 C   0  0  0  0  0  0  0  0  0  0  0  0
   52.6168   -4.3466   -7.5452 C   0  0  0  0  0  0  0  0  0  0  0  0
   53.5013   -4.3971   -8.7703 C   0  0  0  0  0  0  0  0  0  0  0  0
   54.9561   -4.4189   -8.4201 C   0  0  0  0  0  0  0  0  0  0  0  0
   55.2554   -5.5810   -7.4592 C   0  0  0  0  0  0  0  0  0  0  0  0
   56.7052   -5.8346   -7.2683 C   0  0  0  0  0  0  0  0  0  0  0  0
   57.6375   -4.9186   -7.9840 C   0  0  0  0  0  0  0  0  0  0  0  0
   57.1976   -4.6221   -9.3714 C   0  0  0  0  0  0  0  0  0  0  0  0
   58.0912   -4.5918  -10.4332 C   0  0  0  0  0  0  0  0  0  0  0  0
   57.6481   -4.3124  -11.7133 C   0  0  0  0  0  0  0  0  0  0  0  0
   58.5514   -4.2803  -12.7955 O   0  0  0  0  0  0  0  0  0  0  0  0
   56.3146   -4.0692  -11.8978 C   0  0  0  0  0  0  0  0  0  0  0  0
   55.4210   -4.1024  -10.8184 C   0  0  0  0  0  0  0  0  0  0  0  0
   55.8537   -4.3787   -9.5476 C   0  0  0  0  0  0  0  0  0  0  0  0
   54.4910   -5.2585   -6.2506 C   0  0  0  0  0  0  0  0  0  0  0  0
   54.5945   -6.1410   -5.0584 C   0  0  0  0  0  0  0  0  0  0  0  0
   53.3300   -5.7124   -4.3480 C   0  0  0  0  0  0  0  0  0  0  0  0
   52.4411   -5.2910   -5.2301 C   0  0  0  0  0  0  0  0  0  0  0  0
   58.9903   -3.3786  -13.0054 H   0  0  0  0  0  0  0  0  0  0  0  0
  2  1  1  0  0  0
  2  3  1  0  0  0
  3  4  1  0  0  0
  4  5  1  0  0  0
  5  6  1  0  0  0
  6  7  1  0  0  0
  7  8  1  0  0  0
  8  9  1  0  0  0
  9 10  2  0  0  0
 10 11  1  0  0  0
 11 12  1  0  0  0
 11 13  2  0  0  0
 13 14  1  0  0  0
 14 15  2  0  0  0
  6 16  1  0  0  0
 16 17  1  0  0  0
 17 18  1  0  0  0
 18 19  2  0  0  0
 16  2  1  0  0  0
 19  2  1  0  0  0
 15  5  1  0  0  0
 15  9  1  0  0  0
 12 20  1  0  0  0
M  END
> <minimizedAffinity>
-9.12638

> <CNNscore>
0.3186544776

> <CNNaffinity>
5.8358430862

> <CNN_VS>
1.8596174717

> <CNNaffinity_variance>
0.0876531154

$$$$
[H]Oc1c([H])c([H])c2c(c1[H])C([H])([H])C([H])([H])[C@]1([H])[C@]2([H])C([H])([H])C([H])([H])[C@]2(C([H])([H])[H])C([H])=C([H])C([H])([H])[C@]21[H]


 20 23  0  0  0  0  0  0  0  0999 V2000
   53.7901   -5.8635   -1.9140 C   0  0  0  0  0  0  0  0  0  0  0  0
   53.1439   -7.0240   -2.6295 C   0  0  0  0  0  0  0  0  0  0  0  0
   53.9674   -7.3911   -3.8244 C   0  0  0  0  0  0  0  0  0  0  0  0
   53.8875   -6.3111   -4.8792 C   0  0  0  0  0  0  0  0  0  0  0  0
   52.4764   -5.9123   -5.1783 C   0  0  0  0  0  0  0  0  0  0  0  0
   51.7558   -5.4942   -3.8862 C   0  0  0  0  0  0  0  0  0  0  0  0
   50.4447   -4.8400   -4.1231 C   0  0  0  0  0  0  0  0  0  0  0  0
   50.0083   -4.7270   -5.5435 C   0  0  0  0  0  0  0  0  0  0  0  0
   51.1144   -4.3347   -6.4538 C   0  0  0  0  0  0  0  0  0  0  0  0
   50.9353   -3.4015   -7.4656 C   0  0  0  0  0  0  0  0  0  0  0  0
   51.9869   -3.0586   -8.2960 C   0  0  0  0  0  0  0  0  0  0  0  0
   51.8105   -2.1112   -9.3254 O   0  0  0  0  0  0  0  0  0  0  0  0
   53.1972   -3.6625   -8.0905 C   0  0  0  0  0  0  0  0  0  0  0  0
   53.3669   -4.6035   -7.0656 C   0  0  0  0  0  0  0  0  0  0  0  0
   52.3289   -4.9476   -6.2395 C   0  0  0  0  0  0  0  0  0  0  0  0
   51.7319   -6.7138   -3.0732 C   0  0  0  0  0  0  0  0  0  0  0  0
   51.0390   -6.7066   -1.7576 C   0  0  0  0  0  0  0  0  0  0  0  0
   51.7001   -7.9214   -1.1459 C   0  0  0  0  0  0  0  0  0  0  0  0
   52.9055   -8.0835   -1.6621 C   0  0  0  0  0  0  0  0  0  0  0  0
   51.5163   -2.4699  -10.2389 H   0  0  0  0  0  0  0  0  0  0  0  0
  2  1  1  0  0  0
  2  3  1  0  0  0
  3  4  1  0  0  0
  4  5  1  0  0  0
  5  6  1  0  0  0
  6  7  1  0  0  0
  7  8  1  0  0  0
  8  9  1  0  0  0
  9 10  2  0  0  0
 10 11  1  0  0  0
 11 12  1  0  0  0
 11 13  2  0  0  0
 13 14  1  0  0  0
 14 15  2  0  0  0
  6 16  1  0  0  0
 16 17  1  0  0  0
 17 18  1  0  0  0
 18 19  2  0  0  0
 16  2  1  0  0  0
 19  2  1  0  0  0
 15  5  1  0  0  0
 15  9  1  0  0  0
 12 20  1  0  0  0
M  END
> <minimizedAffinity>
-9.52067

> <CNNscore>
0.3134514093

> <CNNaffinity>
6.0487198830

> <CNN_VS>
1.8959797621

> <CNNaffinity_variance>
0.3628140092

$$$$
[H]OC(=O)C([H])([H])c1c([H])c([H])c(OC([H])([H])C([H])([H])C([H])([H])C([H])([H])C([H])([H])c2c([H])c([H])c(Cl)c(Cl)c2[H])c([H])c1[H]


 25 26  0  0  0  0  0  0  0  0999 V2000
   56.2796   -6.0059   -6.8646 C   0  0  0  0  0  0  0  0  0  0  0  0
   56.2717   -5.8500   -5.5068 O   0  0  0  0  0  0  0  0  0  0  0  0
   57.4709   -8.4542   -2.4136 C   0  0  0  0  0  0  0  0  0  0  0  0
   58.4039   -7.8216   -3.1994 C   0  0  0  0  0  0  0  0  0  0  0  0
   58.0398   -6.9532   -4.2284 C   0  0  0  0  0  0  0  0  0  0  0  0
   56.7248   -6.6794   -4.5186 C   0  0  0  0  0  0  0  0  0  0  0  0
   55.7841   -7.3392   -3.6989 C   0  0  0  0  0  0  0  0  0  0  0  0
   56.1472   -8.1900   -2.6902 C   0  0  0  0  0  0  0  0  0  0  0  0
   57.8545   -9.3795   -1.3168 C   0  0  0  0  0  0  0  0  0  0  0  0
   59.2581  -11.0657   -2.5525 O   0  0  0  0  0  0  0  0  0  0  0  0
   59.1608  -10.0503   -1.6282 C   0  0  0  0  0  0  0  0  0  0  0  0
   60.2156   -9.6955   -1.0427 O   0  0  0  0  0  0  0  0  0  0  0  0
   58.5652  -11.2283   -3.2656 H   0  0  0  0  0  0  0  0  0  0  0  0
   56.9128   -4.8539   -7.5654 C   0  0  0  0  0  0  0  0  0  0  0  0
   56.1529   -4.3967   -8.7754 C   0  0  0  0  0  0  0  0  0  0  0  0
   55.0679   -3.4306   -8.4790 C   0  0  0  0  0  0  0  0  0  0  0  0
   53.7708   -3.8819   -9.0810 C   0  0  0  0  0  0  0  0  0  0  0  0
   52.8354   -4.1563   -7.9657 C   0  0  0  0  0  0  0  0  0  0  0  0
   52.9982   -5.2500   -7.1411 C   0  0  0  0  0  0  0  0  0  0  0  0
   52.1121   -5.4811   -6.1102 C   0  0  0  0  0  0  0  0  0  0  0  0
   51.0547   -4.6388   -5.8782 C   0  0  0  0  0  0  0  0  0  0  0  0
   49.9029   -4.8823   -4.5892 Cl  0  0  0  0  0  0  0  0  0  0  0  0
   50.8788   -3.5341   -6.7005 C   0  0  0  0  0  0  0  0  0  0  0  0
   49.5527   -2.4381   -6.4451 Cl  0  0  0  0  0  0  0  0  0  0  0  0
   51.7803   -3.3126   -7.7370 C   0  0  0  0  0  0  0  0  0  0  0  0
 10 11  1  0  0  0
 11 12  2  0  0  0
 11  9  1  0  0  0
  9  3  1  0  0  0
  3  4  2  0  0  0
  4  5  1  0  0  0
  5  6  2  0  0  0
  6  2  1  0  0  0
  2  1  1  0  0  0
  1 14  1  0  0  0
 14 15  1  0  0  0
 15 16  1  0  0  0
 16 17  1  0  0  0
 17 18  1  0  0  0
 18 19  2  0  0  0
 19 20  1  0  0  0
 20 21  2  0  0  0
 21 22  1  0  0  0
 21 23  1  0  0  0
 23 24  1  0  0  0
 23 25  2  0  0  0
  6  7  1  0  0  0
  7  8  2  0  0  0
  8  3  1  0  0  0
 25 18  1  0  0  0
 10 13  1  0  0  0
M  END
> <minimizedAffinity>
-6.93655

> <CNNscore>
0.5471194983

> <CNNaffinity>
6.0417366028

> <CNN_VS>
3.3055520058

> <CNNaffinity_variance>
0.0349723063

$$$$
[H]OC(=O)C([H])([H])c1c([H])c([H])c(OC([H])([H])C([H])([H])C([H])([H])C([H])([H])C([H])([H])c2c([H])c([H])c(Cl)c(Cl)c2[H])c([H])c1[H]


 25 26  0  0  0  0  0  0  0  0999 V2000
   57.1847   -4.5478   -9.3086 C   0  0  0  0  0  0  0  0  0  0  0  0
   57.6654   -5.0625  -10.4798 O   0  0  0  0  0  0  0  0  0  0  0  0
   57.5381   -3.5726  -14.4234 C   0  0  0  0  0  0  0  0  0  0  0  0
   56.4283   -4.1507  -13.8557 C   0  0  0  0  0  0  0  0  0  0  0  0
   56.4375   -4.6507  -12.5536 C   0  0  0  0  0  0  0  0  0  0  0  0
   57.5587   -4.5960  -11.7608 C   0  0  0  0  0  0  0  0  0  0  0  0
   58.6860   -3.9979  -12.3638 C   0  0  0  0  0  0  0  0  0  0  0  0
   58.6710   -3.5084  -13.6418 C   0  0  0  0  0  0  0  0  0  0  0  0
   57.5324   -3.0388  -15.8096 C   0  0  0  0  0  0  0  0  0  0  0  0
   59.7088   -3.9667  -16.6713 O   0  0  0  0  0  0  0  0  0  0  0  0
   58.9361   -2.8835  -16.3185 C   0  0  0  0  0  0  0  0  0  0  0  0
   59.4490   -1.7414  -16.4368 O   0  0  0  0  0  0  0  0  0  0  0  0
   59.3216   -4.8712  -16.8878 H   0  0  0  0  0  0  0  0  0  0  0  0
   55.7995   -4.0174   -9.4469 C   0  0  0  0  0  0  0  0  0  0  0  0
   54.9815   -4.1428   -8.1957 C   0  0  0  0  0  0  0  0  0  0  0  0
   53.5265   -4.2958   -8.4369 C   0  0  0  0  0  0  0  0  0  0  0  0
   52.9097   -5.2120   -7.4225 C   0  0  0  0  0  0  0  0  0  0  0  0
   51.7558   -4.5006   -6.8253 C   0  0  0  0  0  0  0  0  0  0  0  0
   51.2275   -3.3676   -7.4081 C   0  0  0  0  0  0  0  0  0  0  0  0
   50.1528   -2.7254   -6.8303 C   0  0  0  0  0  0  0  0  0  0  0  0
   49.5847   -3.1903   -5.6716 C   0  0  0  0  0  0  0  0  0  0  0  0
   48.2243   -2.4184   -4.8966 Cl  0  0  0  0  0  0  0  0  0  0  0  0
   50.1064   -4.3299   -5.0743 C   0  0  0  0  0  0  0  0  0  0  0  0
   49.4194   -4.9567   -3.6045 Cl  0  0  0  0  0  0  0  0  0  0  0  0
   51.1909   -4.9681   -5.6678 C   0  0  0  0  0  0  0  0  0  0  0  0
 10 11  1  0  0  0
 11 12  2  0  0  0
 11  9  1  0  0  0
  9  3  1  0  0  0
  3  4  2  0  0  0
  4  5  1  0  0  0
  5  6  2  0  0  0
  6  2  1  0  0  0
  2  1  1  0  0  0
  1 14  1  0  0  0
 14 15  1  0  0  0
 15 16  1  0  0  0
 16 17  1  0  0  0
 17 18  1  0  0  0
 18 19  2  0  0  0
 19 20  1  0  0  0
 20 21  2  0  0  0
 21 22  1  0  0  0
 21 23  1  0  0  0
 23 24  1  0  0  0
 23 25  2  0  0  0
  6  7  1  0  0  0
  7  8  2  0  0  0
  8  3  1  0  0  0
 25 18  1  0  0  0
 10 13  1  0  0  0
M  END
> <minimizedAffinity>
-8.14076

> <CNNscore>
0.5272796750

> <CNNaffinity>
6.1867804527

> <CNN_VS>
3.2621636391

> <CNNaffinity_variance>
0.2797428668

$$$$
[H]OC(=O)C([H])([H])c1c([H])c([H])c(OC([H])([H])C([H])([H])C([H])([H])C([H])([H])C([H])([H])c2c([H])c([H])c(Cl)c(Cl)c2[H])c([H])c1[H]


 25 26  0  0  0  0  0  0  0  0999 V2000
   57.6996   -4.9740   -8.6352 C   0  0  0  0  0  0  0  0  0  0  0  0
   58.8630   -5.5402   -8.1949 O   0  0  0  0  0  0  0  0  0  0  0  0
   62.3730   -6.8139  -10.1559 C   0  0  0  0  0  0  0  0  0  0  0  0
   61.3180   -6.2986  -10.8699 C   0  0  0  0  0  0  0  0  0  0  0  0
   60.1450   -5.8668  -10.2510 C   0  0  0  0  0  0  0  0  0  0  0  0
   59.9740   -5.9323   -8.8890 C   0  0  0  0  0  0  0  0  0  0  0  0
   61.0699   -6.4640   -8.1760 C   0  0  0  0  0  0  0  0  0  0  0  0
   62.2188   -6.8856   -8.7886 C   0  0  0  0  0  0  0  0  0  0  0  0
   63.6239   -7.2746  -10.8111 C   0  0  0  0  0  0  0  0  0  0  0  0
   64.3192   -5.3376  -12.2619 O   0  0  0  0  0  0  0  0  0  0  0  0
   63.7962   -6.6054  -12.1437 C   0  0  0  0  0  0  0  0  0  0  0  0
   63.4614   -7.1961  -13.2022 O   0  0  0  0  0  0  0  0  0  0  0  0
   64.8705   -4.9008  -11.5406 H   0  0  0  0  0  0  0  0  0  0  0  0
   56.7801   -4.6219   -7.5172 C   0  0  0  0  0  0  0  0  0  0  0  0
   55.4166   -5.2340   -7.6466 C   0  0  0  0  0  0  0  0  0  0  0  0
   54.3022   -4.2751   -7.4546 C   0  0  0  0  0  0  0  0  0  0  0  0
   53.0386   -4.7924   -8.0748 C   0  0  0  0  0  0  0  0  0  0  0  0
   51.9038   -4.2159   -7.3172 C   0  0  0  0  0  0  0  0  0  0  0  0
   51.2716   -3.0625   -7.7327 C   0  0  0  0  0  0  0  0  0  0  0  0
   50.2175   -2.5480   -7.0079 C   0  0  0  0  0  0  0  0  0  0  0  0
   49.7726   -3.1622   -5.8650 C   0  0  0  0  0  0  0  0  0  0  0  0
   48.4439   -2.5561   -4.9085 Cl  0  0  0  0  0  0  0  0  0  0  0  0
   50.3997   -4.3238   -5.4352 C   0  0  0  0  0  0  0  0  0  0  0  0
   49.8707   -5.1377   -3.9920 Cl  0  0  0  0  0  0  0  0  0  0  0  0
   51.4621   -4.8323   -6.1760 C   0  0  0  0  0  0  0  0  0  0  0  0
 10 11  1  0  0  0
 11 12  2  0  0  0
 11  9  1  0  0  0
  9  3  1  0  0  0
  3  4  2  0  0  0
  4  5  1  0  0  0
  5  6  2  0  0  0
  6  2  1  0  0  0
  2  1  1  0  0  0
  1 14  1  0  0  0
 14 15  1  0  0  0
 15 16  1  0  0  0
 16 17  1  0  0  0
 17 18  1  0  0  0
 18 19  2  0  0  0
 19 20  1  0  0  0
 20 21  2  0  0  0
 21 22  1  0  0  0
 21 23  1  0  0  0
 23 24  1  0  0  0
 23 25  2  0  0  0
  6  7  1  0  0  0
  7  8  2  0  0  0
  8  3  1  0  0  0
 25 18  1  0  0  0
 10 13  1  0  0  0
M  END
> <minimizedAffinity>
-6.60495

> <CNNscore>
0.4890301824

> <CNNaffinity>
5.6613883972

> <CNN_VS>
2.7685897350

> <CNNaffinity_variance>
0.3883406520

$$$$
[H]OC(=O)C([H])([H])c1c([H])c([H])c(OC([H])([H])C([H])([H])C([H])([H])C([H])([H])C([H])([H])c2c([H])c([H])c(Cl)c(Cl)c2[H])c([H])c1[H]


 25 26  0  0  0  0  0  0  0  0999 V2000
   56.7086   -4.1988   -9.4389 C   0  0  0  0  0  0  0  0  0  0  0  0
   56.6925   -4.8996  -10.6121 O   0  0  0  0  0  0  0  0  0  0  0  0
   57.4936   -3.5588  -14.5298 C   0  0  0  0  0  0  0  0  0  0  0  0
   56.2486   -4.0312  -14.1908 C   0  0  0  0  0  0  0  0  0  0  0  0
   55.9514   -4.4795  -12.9039 C   0  0  0  0  0  0  0  0  0  0  0  0
   56.8875   -4.4766  -11.8978 C   0  0  0  0  0  0  0  0  0  0  0  0
   58.1584   -3.9869  -12.2681 C   0  0  0  0  0  0  0  0  0  0  0  0
   58.4442   -3.5477  -13.5325 C   0  0  0  0  0  0  0  0  0  0  0  0
   57.8141   -3.0803  -15.8990 C   0  0  0  0  0  0  0  0  0  0  0  0
   60.1397   -2.1156  -15.8595 O   0  0  0  0  0  0  0  0  0  0  0  0
   59.2918   -3.1602  -16.1509 C   0  0  0  0  0  0  0  0  0  0  0  0
   59.7998   -4.2002  -16.6424 O   0  0  0  0  0  0  0  0  0  0  0  0
   59.9004   -1.3755  -15.2193 H   0  0  0  0  0  0  0  0  0  0  0  0
   55.4053   -4.2637   -8.7200 C   0  0  0  0  0  0  0  0  0  0  0  0
   54.2870   -3.5719   -9.4420 C   0  0  0  0  0  0  0  0  0  0  0  0
   53.5307   -2.6094   -8.6054 C   0  0  0  0  0  0  0  0  0  0  0  0
   52.0546   -2.7514   -8.8286 C   0  0  0  0  0  0  0  0  0  0  0  0
   51.4735   -3.3352   -7.5975 C   0  0  0  0  0  0  0  0  0  0  0  0
   51.9727   -4.4965   -7.0454 C   0  0  0  0  0  0  0  0  0  0  0  0
   51.4122   -5.0177   -5.8985 C   0  0  0  0  0  0  0  0  0  0  0  0
   50.3534   -4.4024   -5.2806 C   0  0  0  0  0  0  0  0  0  0  0  0
   49.6049   -5.0167   -3.8281 Cl  0  0  0  0  0  0  0  0  0  0  0  0
   49.8410   -3.2327   -5.8254 C   0  0  0  0  0  0  0  0  0  0  0  0
   48.4992   -2.4171   -5.0773 Cl  0  0  0  0  0  0  0  0  0  0  0  0
   50.4159   -2.7177   -6.9830 C   0  0  0  0  0  0  0  0  0  0  0  0
 10 11  1  0  0  0
 11 12  2  0  0  0
 11  9  1  0  0  0
  9  3  1  0  0  0
  3  4  2  0  0  0
  4  5  1  0  0  0
  5  6  2  0  0  0
  6  2  1  0  0  0
  2  1  1  0  0  0
  1 14  1  0  0  0
 14 15  1  0  0  0
 15 16  1  0  0  0
 16 17  1  0  0  0
 17 18  1  0  0  0
 18 19  2  0  0  0
 19 20  1  0  0  0
 20 21  2  0  0  0
 21 22  1  0  0  0
 21 23  1  0  0  0
 23 24  1  0  0  0
 23 25  2  0  0  0
  6  7  1  0  0  0
  7  8  2  0  0  0
  8  3  1  0  0  0
 25 18  1  0  0  0
 10 13  1  0  0  0
M  END
> <minimizedAffinity>
-7.91476

> <CNNscore>
0.4687850773

> <CNNaffinity>
6.1236414909

> <CNN_VS>
2.8706717491

> <CNNaffinity_variance>
0.1125728264

$$$$
[H]OC(=O)C([H])([H])c1c([H])c([H])c(OC([H])([H])C([H])([H])C([H])([H])C([H])([H])C([H])([H])c2c([H])c([H])c(Cl)c(Cl)c2[H])c([H])c1[H]


 25 26  0  0  0  0  0  0  0  0999 V2000
   56.7622   -4.2980   -9.0416 C   0  0  0  0  0  0  0  0  0  0  0  0
   57.4120   -4.8585  -10.1053 O   0  0  0  0  0  0  0  0  0  0  0  0
   57.4283   -3.6489  -14.1457 C   0  0  0  0  0  0  0  0  0  0  0  0
   58.5783   -3.6029  -13.3949 C   0  0  0  0  0  0  0  0  0  0  0  0
   58.6063   -3.9978  -12.0575 C   0  0  0  0  0  0  0  0  0  0  0  0
   57.4838   -4.4557  -11.4101 C   0  0  0  0  0  0  0  0  0  0  0  0
   56.3149   -4.4951  -12.2002 C   0  0  0  0  0  0  0  0  0  0  0  0
   56.2935   -4.1067  -13.5124 C   0  0  0  0  0  0  0  0  0  0  0  0
   57.3944   -3.2293  -15.5702 C   0  0  0  0  0  0  0  0  0  0  0  0
   59.3806   -1.7668  -16.0762 O   0  0  0  0  0  0  0  0  0  0  0  0
   58.7866   -3.0085  -16.0861 C   0  0  0  0  0  0  0  0  0  0  0  0
   59.4556   -3.9682  -16.5477 O   0  0  0  0  0  0  0  0  0  0  0  0
   59.0669   -1.0119  -15.4873 H   0  0  0  0  0  0  0  0  0  0  0  0
   56.9007   -5.1087   -7.7994 C   0  0  0  0  0  0  0  0  0  0  0  0
   55.5895   -5.4409   -7.1507 C   0  0  0  0  0  0  0  0  0  0  0  0
   54.5123   -4.4601   -7.4266 C   0  0  0  0  0  0  0  0  0  0  0  0
   53.2738   -5.1496   -7.9161 C   0  0  0  0  0  0  0  0  0  0  0  0
   52.2440   -5.0151   -6.8598 C   0  0  0  0  0  0  0  0  0  0  0  0
   52.1567   -5.9166   -5.8194 C   0  0  0  0  0  0  0  0  0  0  0  0
   51.1880   -5.7671   -4.8497 C   0  0  0  0  0  0  0  0  0  0  0  0
   50.2930   -4.7285   -4.8918 C   0  0  0  0  0  0  0  0  0  0  0  0
   49.0470   -4.4903   -3.6925 Cl  0  0  0  0  0  0  0  0  0  0  0  0
   50.3694   -3.8137   -5.9334 C   0  0  0  0  0  0  0  0  0  0  0  0
   49.2563   -2.4807   -6.0289 Cl  0  0  0  0  0  0  0  0  0  0  0  0
   51.3517   -3.9763   -6.9052 C   0  0  0  0  0  0  0  0  0  0  0  0
 10 11  1  0  0  0
 11 12  2  0  0  0
 11  9  1  0  0  0
  9  3  1  0  0  0
  3  4  2  0  0  0
  4  5  1  0  0  0
  5  6  2  0  0  0
  6  2  1  0  0  0
  2  1  1  0  0  0
  1 14  1  0  0  0
 14 15  1  0  0  0
 15 16  1  0  0  0
 16 17  1  0  0  0
 17 18  1  0  0  0
 18 19  2  0  0  0
 19 20  1  0  0  0
 20 21  2  0  0  0
 21 22  1  0  0  0
 21 23  1  0  0  0
 23 24  1  0  0  0
 23 25  2  0  0  0
  6  7  1  0  0  0
  7  8  2  0  0  0
  8  3  1  0  0  0
 25 18  1  0  0  0
 10 13  1  0  0  0
M  END
> <minimizedAffinity>
-7.78675

> <CNNscore>
0.4675981700

> <CNNaffinity>
6.0188574791

> <CNN_VS>
2.8144066334

> <CNNaffinity_variance>
0.1653056592

$$$$
[H]OC(=O)C([H])([H])c1c([H])c([H])c(OC([H])([H])C([H])([H])C([H])([H])C([H])([H])C([H])([H])c2c([H])c([H])c(Cl)c(Cl)c2[H])c([H])c1[H]


 25 26  0  0  0  0  0  0  0  0999 V2000
   55.9835   -3.5076  -10.0791 C   0  0  0  0  0  0  0  0  0  0  0  0
   56.5025   -4.7719  -10.0801 O   0  0  0  0  0  0  0  0  0  0  0  0
   60.3969   -6.1197   -9.1828 C   0  0  0  0  0  0  0  0  0  0  0  0
   60.0234   -5.8677  -10.4809 C   0  0  0  0  0  0  0  0  0  0  0  0
   58.7444   -5.4192  -10.8102 C   0  0  0  0  0  0  0  0  0  0  0  0
   57.7803   -5.2037   -9.8548 C   0  0  0  0  0  0  0  0  0  0  0  0
   58.1859   -5.4681   -8.5291 C   0  0  0  0  0  0  0  0  0  0  0  0
   59.4426   -5.9076   -8.2118 C   0  0  0  0  0  0  0  0  0  0  0  0
   61.7580   -6.5972   -8.8279 C   0  0  0  0  0  0  0  0  0  0  0  0
   60.8431   -8.9284   -9.0901 O   0  0  0  0  0  0  0  0  0  0  0  0
   61.7311   -8.0608   -8.4955 C   0  0  0  0  0  0  0  0  0  0  0  0
   62.5321   -8.5381   -7.6517 O   0  0  0  0  0  0  0  0  0  0  0  0
   60.3722   -8.7246   -9.9571 H   0  0  0  0  0  0  0  0  0  0  0  0
   55.1158   -3.2503   -8.8957 C   0  0  0  0  0  0  0  0  0  0  0  0
   54.9447   -4.4460   -8.0061 C   0  0  0  0  0  0  0  0  0  0  0  0
   53.5501   -4.6699   -7.5550 C   0  0  0  0  0  0  0  0  0  0  0  0
   52.5991   -3.7764   -8.2940 C   0  0  0  0  0  0  0  0  0  0  0  0
   51.4566   -3.5015   -7.3921 C   0  0  0  0  0  0  0  0  0  0  0  0
   50.6103   -2.4335   -7.6060 C   0  0  0  0  0  0  0  0  0  0  0  0
   49.5545   -2.2012   -6.7502 C   0  0  0  0  0  0  0  0  0  0  0  0
   49.3184   -3.0172   -5.6732 C   0  0  0  0  0  0  0  0  0  0  0  0
   47.9982   -2.7710   -4.5579 Cl  0  0  0  0  0  0  0  0  0  0  0  0
   50.1623   -4.0959   -5.4460 C   0  0  0  0  0  0  0  0  0  0  0  0
   49.9027   -5.1580   -4.0933 Cl  0  0  0  0  0  0  0  0  0  0  0  0
   51.2239   -4.3188   -6.3173 C   0  0  0  0  0  0  0  0  0  0  0  0
 10 11  1  0  0  0
 11 12  2  0  0  0
 11  9  1  0  0  0
  9  3  1  0  0  0
  3  4  2  0  0  0
  4  5  1  0  0  0
  5  6  2  0  0  0
  6  2  1  0  0  0
  2  1  1  0  0  0
  1 14  1  0  0  0
 14 15  1  0  0  0
 15 16  1  0  0  0
 16 17  1  0  0  0
 17 18  1  0  0  0
 18 19  2  0  0  0
 19 20  1  0  0  0
 20 21  2  0  0  0
 21 22  1  0  0  0
 21 23  1  0  0  0
 23 24  1  0  0  0
 23 25  2  0  0  0
  6  7  1  0  0  0
  7  8  2  0  0  0
  8  3  1  0  0  0
 25 18  1  0  0  0
 10 13  1  0  0  0
M  END
> <minimizedAffinity>
-7.19377

> <CNNscore>
0.4637851417

> <CNNaffinity>
5.9615759850

> <CNN_VS>
2.7648904324

> <CNNaffinity_variance>
0.1903403401

$$$$
[H]OC(=O)C([H])([H])c1c([H])c([H])c(OC([H])([H])C([H])([H])C([H])([H])C([H])([H])C([H])([H])c2c([H])c([H])c(Cl)c(Cl)c2[H])c([H])c1[H]


 25 26  0  0  0  0  0  0  0  0999 V2000
   56.0982   -5.5235   -6.0328 C   0  0  0  0  0  0  0  0  0  0  0  0
   56.8962   -5.4791   -7.1414 O   0  0  0  0  0  0  0  0  0  0  0  0
   56.3137   -4.0242  -11.0570 C   0  0  0  0  0  0  0  0  0  0  0  0
   55.3045   -3.9584  -10.1268 C   0  0  0  0  0  0  0  0  0  0  0  0
   55.4663   -4.4286   -8.8236 C   0  0  0  0  0  0  0  0  0  0  0  0
   56.6455   -4.9874   -8.3926 C   0  0  0  0  0  0  0  0  0  0  0  0
   57.6679   -5.0441   -9.3639 C   0  0  0  0  0  0  0  0  0  0  0  0
   57.5036   -4.5806  -10.6412 C   0  0  0  0  0  0  0  0  0  0  0  0
   56.1456   -3.5244  -12.4457 C   0  0  0  0  0  0  0  0  0  0  0  0
   58.3437   -3.6788  -13.6642 O   0  0  0  0  0  0  0  0  0  0  0  0
   57.1083   -4.2103  -13.3710 C   0  0  0  0  0  0  0  0  0  0  0  0
   56.8049   -5.3053  -13.9099 O   0  0  0  0  0  0  0  0  0  0  0  0
   58.7945   -2.9854  -13.0889 H   0  0  0  0  0  0  0  0  0  0  0  0
   55.2974   -6.7776   -5.9587 C   0  0  0  0  0  0  0  0  0  0  0  0
   54.7048   -7.0317   -4.6042 C   0  0  0  0  0  0  0  0  0  0  0  0
   53.3993   -6.3655   -4.3802 C   0  0  0  0  0  0  0  0  0  0  0  0
   52.6484   -6.2135   -5.6693 C   0  0  0  0  0  0  0  0  0  0  0  0
   51.5157   -5.2928   -5.4174 C   0  0  0  0  0  0  0  0  0  0  0  0
   50.7158   -5.4228   -4.3012 C   0  0  0  0  0  0  0  0  0  0  0  0
   49.6679   -4.5514   -4.0918 C   0  0  0  0  0  0  0  0  0  0  0  0
   49.3943   -3.5411   -4.9784 C   0  0  0  0  0  0  0  0  0  0  0  0
   48.0821   -2.4099   -4.7642 Cl  0  0  0  0  0  0  0  0  0  0  0  0
   50.1914   -3.3986   -6.1061 C   0  0  0  0  0  0  0  0  0  0  0  0
   49.8830   -2.1328   -7.2583 Cl  0  0  0  0  0  0  0  0  0  0  0  0
   51.2454   -4.2848   -6.3052 C   0  0  0  0  0  0  0  0  0  0  0  0
 10 11  1  0  0  0
 11 12  2  0  0  0
 11  9  1  0  0  0
  9  3  1  0  0  0
  3  4  2  0  0  0
  4  5  1  0  0  0
  5  6  2  0  0  0
  6  2  1  0  0  0
  2  1  1  0  0  0
  1 14  1  0  0  0
 14 15  1  0  0  0
 15 16  1  0  0  0
 16 17  1  0  0  0
 17 18  1  0  0  0
 18 19  2  0  0  0
 19 20  1  0  0  0
 20 21  2  0  0  0
 21 22  1  0  0  0
 21 23  1  0  0  0
 23 24  1  0  0  0
 23 25  2  0  0  0
  6  7  1  0  0  0
  7  8  2  0  0  0
  8  3  1  0  0  0
 25 18  1  0  0  0
 10 13  1  0  0  0
M  END
> <minimizedAffinity>
-8.42726

> <CNNscore>
0.4380866885

> <CNNaffinity>
6.4338560104

> <CNN_VS>
2.8185865879

> <CNNaffinity_variance>
0.0871256217

$$$$
[H]OC(=O)C([H])([H])c1c([H])c([H])c(OC([H])([H])C([H])([H])C([H])([H])C([H])([H])C([H])([H])c2c([H])c([H])c(Cl)c(Cl)c2[H])c([H])c1[H]


 25 26  0  0  0  0  0  0  0  0999 V2000
   56.0388   -4.7310   -6.2856 C   0  0  0  0  0  0  0  0  0  0  0  0
   56.5208   -5.4450   -7.3465 O   0  0  0  0  0  0  0  0  0  0  0  0
   57.5112   -4.3392  -11.2942 C   0  0  0  0  0  0  0  0  0  0  0  0
   56.2994   -3.9875  -10.7502 C   0  0  0  0  0  0  0  0  0  0  0  0
   55.9430   -4.3359   -9.4474 C   0  0  0  0  0  0  0  0  0  0  0  0
   56.7830   -5.0536   -8.6302 C   0  0  0  0  0  0  0  0  0  0  0  0
   58.0218   -5.4033   -9.2092 C   0  0  0  0  0  0  0  0  0  0  0  0
   58.3664   -5.0582  -10.4879 C   0  0  0  0  0  0  0  0  0  0  0  0
   57.8946   -3.9701  -12.6810 C   0  0  0  0  0  0  0  0  0  0  0  0
   55.8514   -2.9702  -13.7607 O   0  0  0  0  0  0  0  0  0  0  0  0
   56.7030   -4.0384  -13.5913 C   0  0  0  0  0  0  0  0  0  0  0  0
   56.4491   -5.0902  -14.2320 O   0  0  0  0  0  0  0  0  0  0  0  0
   56.1075   -2.0219  -13.5366 H   0  0  0  0  0  0  0  0  0  0  0  0
   54.7523   -5.2774   -5.7700 C   0  0  0  0  0  0  0  0  0  0  0  0
   54.1876   -6.3806   -6.6152 C   0  0  0  0  0  0  0  0  0  0  0  0
   52.8387   -6.0951   -7.1605 C   0  0  0  0  0  0  0  0  0  0  0  0
   52.7239   -4.6597   -7.5791 C   0  0  0  0  0  0  0  0  0  0  0  0
   51.5320   -4.0946   -6.9050 C   0  0  0  0  0  0  0  0  0  0  0  0
   50.8775   -2.9885   -7.4057 C   0  0  0  0  0  0  0  0  0  0  0  0
   49.7702   -2.4836   -6.7575 C   0  0  0  0  0  0  0  0  0  0  0  0
   49.2934   -3.0611   -5.6083 C   0  0  0  0  0  0  0  0  0  0  0  0
   47.8971   -2.4650   -4.7464 Cl  0  0  0  0  0  0  0  0  0  0  0  0
   49.9424   -4.1750   -5.0932 C   0  0  0  0  0  0  0  0  0  0  0  0
   49.3745   -4.9411   -3.6386 Cl  0  0  0  0  0  0  0  0  0  0  0  0
   51.0585   -4.6742   -5.7573 C   0  0  0  0  0  0  0  0  0  0  0  0
 10 11  1  0  0  0
 11 12  2  0  0  0
 11  9  1  0  0  0
  9  3  1  0  0  0
  3  4  2  0  0  0
  4  5  1  0  0  0
  5  6  2  0  0  0
  6  2  1  0  0  0
  2  1  1  0  0  0
  1 14  1  0  0  0
 14 15  1  0  0  0
 15 16  1  0  0  0
 16 17  1  0  0  0
 17 18  1  0  0  0
 18 19  2  0  0  0
 19 20  1  0  0  0
 20 21  2  0  0  0
 21 22  1  0  0  0
 21 23  1  0  0  0
 23 24  1  0  0  0
 23 25  2  0  0  0
  6  7  1  0  0  0
  7  8  2  0  0  0
  8  3  1  0  0  0
 25 18  1  0  0  0
 10 13  1  0  0  0
M  END
> <minimizedAffinity>
-9.03792

> <CNNscore>
0.3912206590

> <CNNaffinity>
6.3540430069

> <CNN_VS>
2.4858329296

> <CNNaffinity_variance>
0.1336468011

$$$$
[H]OC(=O)C([H])([H])c1c([H])c([H])c(OC([H])([H])C([H])([H])C([H])([H])C([H])([H])C([H])([H])c2c([H])c([H])c(Cl)c(Cl)c2[H])c([H])c1[H]


 25 26  0  0  0  0  0  0  0  0999 V2000
   57.4365   -4.8921  -10.0349 C   0  0  0  0  0  0  0  0  0  0  0  0
   56.9606   -4.7739  -11.3106 O   0  0  0  0  0  0  0  0  0  0  0  0
   58.6026   -3.1957  -14.8604 C   0  0  0  0  0  0  0  0  0  0  0  0
   59.3962   -3.4275  -13.7628 C   0  0  0  0  0  0  0  0  0  0  0  0
   58.8842   -3.9505  -12.5754 C   0  0  0  0  0  0  0  0  0  0  0  0
   57.5539   -4.2641  -12.4322 C   0  0  0  0  0  0  0  0  0  0  0  0
   56.7580   -4.0187  -13.5717 C   0  0  0  0  0  0  0  0  0  0  0  0
   57.2661   -3.5058  -14.7345 C   0  0  0  0  0  0  0  0  0  0  0  0
   59.1440   -2.6391  -16.1267 C   0  0  0  0  0  0  0  0  0  0  0  0
   59.4215   -4.7644  -17.4482 O   0  0  0  0  0  0  0  0  0  0  0  0
   59.9793   -3.6646  -16.8365 C   0  0  0  0  0  0  0  0  0  0  0  0
   61.2297   -3.5423  -16.8907 O   0  0  0  0  0  0  0  0  0  0  0  0
   58.4504   -4.8134  -17.7117 H   0  0  0  0  0  0  0  0  0  0  0  0
   56.4653   -4.4001   -9.0180 C   0  0  0  0  0  0  0  0  0  0  0  0
   55.2673   -3.7204   -9.6123 C   0  0  0  0  0  0  0  0  0  0  0  0
   54.4153   -3.0202   -8.6212 C   0  0  0  0  0  0  0  0  0  0  0  0
   52.9860   -2.9865   -9.0736 C   0  0  0  0  0  0  0  0  0  0  0  0
   52.1486   -3.4215   -7.9318 C   0  0  0  0  0  0  0  0  0  0  0  0
   50.9562   -2.7958   -7.6329 C   0  0  0  0  0  0  0  0  0  0  0  0
   50.1967   -3.2217   -6.5638 C   0  0  0  0  0  0  0  0  0  0  0  0
   50.6013   -4.2688   -5.7755 C   0  0  0  0  0  0  0  0  0  0  0  0
   49.6810   -4.8500   -4.4107 Cl  0  0  0  0  0  0  0  0  0  0  0  0
   51.7994   -4.9078   -6.0649 C   0  0  0  0  0  0  0  0  0  0  0  0
   52.3535   -6.2400   -5.0937 Cl  0  0  0  0  0  0  0  0  0  0  0  0
   52.5560   -4.4679   -7.1466 C   0  0  0  0  0  0  0  0  0  0  0  0
 10 11  1  0  0  0
 11 12  2  0  0  0
 11  9  1  0  0  0
  9  3  1  0  0  0
  3  4  2  0  0  0
  4  5  1  0  0  0
  5  6  2  0  0  0
  6  2  1  0  0  0
  2  1  1  0  0  0
  1 14  1  0  0  0
 14 15  1  0  0  0
 15 16  1  0  0  0
 16 17  1  0  0  0
 17 18  1  0  0  0
 18 19  2  0  0  0
 19 20  1  0  0  0
 20 21  2  0  0  0
 21 22  1  0  0  0
 21 23  1  0  0  0
 23 24  1  0  0  0
 23 25  2  0  0  0
  6  7  1  0  0  0
  7  8  2  0  0  0
  8  3  1  0  0  0
 25 18  1  0  0  0
 10 13  1  0  0  0
M  END
> <minimizedAffinity>
-7.32502

> <CNNscore>
0.3778121471

> <CNNaffinity>
5.8920845985

> <CNN_VS>
2.2261011600

> <CNNaffinity_variance>
0.2039164752

$$$$
[H]OC(=O)c1c([H])c(-c2c([H])c([H])c3c(c2[H])C([H])([H])C([H])([H])S3)c([H])c([H])c1C([H])([H])OC([H])([H])c1c([H])c([H])c([H])c(F)c1[H]


 29 32  0  0  0  0  0  0  0  0999 V2000
   57.4844   -5.0187   -9.6716 C   0  0  0  0  0  0  0  0  0  0  0  0
   56.3450   -4.9992   -8.8775 C   0  0  0  0  0  0  0  0  0  0  0  0
   55.1584   -4.4177   -9.2378 C   0  0  0  0  0  0  0  0  0  0  0  0
   55.0846   -3.8116  -10.4654 C   0  0  0  0  0  0  0  0  0  0  0  0
   56.1930   -3.8088  -11.2834 C   0  0  0  0  0  0  0  0  0  0  0  0
   57.3912   -4.4066  -10.8971 C   0  0  0  0  0  0  0  0  0  0  0  0
   53.9983   -4.4534   -8.3085 C   0  0  0  0  0  0  0  0  0  0  0  0
   53.9725   -5.4574   -7.3715 C   0  0  0  0  0  0  0  0  0  0  0  0
   52.9027   -5.5142   -6.4934 C   0  0  0  0  0  0  0  0  0  0  0  0
   51.9087   -4.5798   -6.5788 C   0  0  0  0  0  0  0  0  0  0  0  0
   50.4085   -4.3834   -5.6351 S   0  0  0  0  0  0  0  0  0  0  0  0
   49.5717   -3.2930   -6.8722 C   0  0  0  0  0  0  0  0  0  0  0  0
   50.7887   -2.6508   -7.4540 C   0  0  0  0  0  0  0  0  0  0  0  0
   51.9098   -3.5676   -7.5029 C   0  0  0  0  0  0  0  0  0  0  0  0
   53.0032   -3.5417   -8.3718 C   0  0  0  0  0  0  0  0  0  0  0  0
   59.2073   -6.7695   -9.7906 O   0  0  0  0  0  0  0  0  0  0  0  0
   58.6731   -5.6706   -9.1756 C   0  0  0  0  0  0  0  0  0  0  0  0
   59.2410   -5.2280   -8.1540 O   0  0  0  0  0  0  0  0  0  0  0  0
   59.1736   -7.7159   -9.4020 H   0  0  0  0  0  0  0  0  0  0  0  0
   58.5689   -4.3841  -11.7942 C   0  0  0  0  0  0  0  0  0  0  0  0
   58.0850   -4.4066  -13.1295 O   0  0  0  0  0  0  0  0  0  0  0  0
   58.9551   -3.6032  -13.8610 C   0  0  0  0  0  0  0  0  0  0  0  0
   58.3986   -3.2596  -15.1912 C   0  0  0  0  0  0  0  0  0  0  0  0
   59.2094   -2.7588  -16.1755 C   0  0  0  0  0  0  0  0  0  0  0  0
   58.6962   -2.4407  -17.4115 C   0  0  0  0  0  0  0  0  0  0  0  0
   57.3569   -2.6297  -17.6534 C   0  0  0  0  0  0  0  0  0  0  0  0
   56.5495   -3.1322  -16.6617 C   0  0  0  0  0  0  0  0  0  0  0  0
   55.2166   -3.3183  -16.9081 F   0  0  0  0  0  0  0  0  0  0  0  0
   57.0715   -3.4471  -15.4300 C   0  0  0  0  0  0  0  0  0  0  0  0
 16 17  1  0  0  0
 17 18  2  0  0  0
 17  1  1  0  0  0
  1  2  2  0  0  0
  2  3  1  0  0  0
  3  4  2  0  0  0
  4  5  1  0  0  0
  5  6  2  0  0  0
  6 20  1  0  0  0
 20 21  1  0  0  0
 21 22  1  0  0  0
 22 23  1  0  0  0
 23 24  2  0  0  0
 24 25  1  0  0  0
 25 26  2  0  0  0
 26 27  1  0  0  0
 27 28  1  0  0  0
 27 29  2  0  0  0
  3  7  1  0  0  0
  7  8  2  0  0  0
  8  9  1  0  0  0
  9 10  2  0  0  0
 10 11  1  0  0  0
 11 12  1  0  0  0
 12 13  1  0  0  0
 13 14  1  0  0  0
 14 15  2  0  0  0
  6  1  1  0  0  0
 29 23  1  0  0  0
 15  7  1  0  0  0
 14 10  1  0  0  0
 16 19  1  0  0  0
M  END
> <minimizedAffinity>
-9.60452

> <CNNscore>
0.3421557844

> <CNNaffinity>
6.0257196426

> <CNN_VS>
2.0617349148

> <CNNaffinity_variance>
0.1055449024

$$$$
[H]OC(=O)c1c([H])c(-c2c([H])c([H])c3c(c2[H])C([H])([H])C([H])([H])S3)c([H])c([H])c1C([H])([H])OC([H])([H])c1c([H])c([H])c([H])c(F)c1[H]


 29 32  0  0  0  0  0  0  0  0999 V2000
   57.0540   -4.6280   -8.2446 C   0  0  0  0  0  0  0  0  0  0  0  0
   58.2314   -5.3644   -8.2665 C   0  0  0  0  0  0  0  0  0  0  0  0
   58.9125   -5.7044   -9.4050 C   0  0  0  0  0  0  0  0  0  0  0  0
   58.4015   -5.2923  -10.6087 C   0  0  0  0  0  0  0  0  0  0  0  0
   57.2350   -4.5597  -10.6304 C   0  0  0  0  0  0  0  0  0  0  0  0
   56.5576   -4.2246   -9.4595 C   0  0  0  0  0  0  0  0  0  0  0  0
   60.1662   -6.4987   -9.3147 C   0  0  0  0  0  0  0  0  0  0  0  0
   61.2014   -5.9614   -8.5893 C   0  0  0  0  0  0  0  0  0  0  0  0
   62.3811   -6.6805   -8.4893 C   0  0  0  0  0  0  0  0  0  0  0  0
   62.4861   -7.8949   -9.1079 C   0  0  0  0  0  0  0  0  0  0  0  0
   63.8458   -9.0452   -9.1957 S   0  0  0  0  0  0  0  0  0  0  0  0
   63.1942   -9.9661  -10.6609 C   0  0  0  0  0  0  0  0  0  0  0  0
   61.7352   -9.7544  -10.4192 C   0  0  0  0  0  0  0  0  0  0  0  0
   61.4693   -8.4545   -9.8368 C   0  0  0  0  0  0  0  0  0  0  0  0
   60.2954   -7.7015   -9.9164 C   0  0  0  0  0  0  0  0  0  0  0  0
   56.4807   -3.0823   -6.4197 O   0  0  0  0  0  0  0  0  0  0  0  0
   56.4361   -4.3321   -6.9740 C   0  0  0  0  0  0  0  0  0  0  0  0
   55.8392   -5.2362   -6.3506 O   0  0  0  0  0  0  0  0  0  0  0  0
   57.0410   -2.8402   -5.5980 H   0  0  0  0  0  0  0  0  0  0  0  0
   55.3027   -3.4405   -9.5124 C   0  0  0  0  0  0  0  0  0  0  0  0
   54.2484   -4.3000   -9.1031 O   0  0  0  0  0  0  0  0  0  0  0  0
   53.0912   -3.5279   -9.1486 C   0  0  0  0  0  0  0  0  0  0  0  0
   52.2290   -3.7596   -7.9655 C   0  0  0  0  0  0  0  0  0  0  0  0
   52.4343   -4.8474   -7.1582 C   0  0  0  0  0  0  0  0  0  0  0  0
   51.6368   -5.0642   -6.0584 C   0  0  0  0  0  0  0  0  0  0  0  0
   50.6271   -4.1770   -5.7735 C   0  0  0  0  0  0  0  0  0  0  0  0
   50.4268   -3.0882   -6.5874 C   0  0  0  0  0  0  0  0  0  0  0  0
   49.4197   -2.2081   -6.2989 F   0  0  0  0  0  0  0  0  0  0  0  0
   51.2287   -2.8801   -7.6839 C   0  0  0  0  0  0  0  0  0  0  0  0
 16 17  1  0  0  0
 17 18  2  0  0  0
 17  1  1  0  0  0
  1  2  2  0  0  0
  2  3  1  0  0  0
  3  4  2  0  0  0
  4  5  1  0  0  0
  5  6  2  0  0  0
  6 20  1  0  0  0
 20 21  1  0  0  0
 21 22  1  0  0  0
 22 23  1  0  0  0
 23 24  2  0  0  0
 24 25  1  0  0  0
 25 26  2  0  0  0
 26 27  1  0  0  0
 27 28  1  0  0  0
 27 29  2  0  0  0
  3  7  1  0  0  0
  7  8  2  0  0  0
  8  9  1  0  0  0
  9 10  2  0  0  0
 10 11  1  0  0  0
 11 12  1  0  0  0
 12 13  1  0  0  0
 13 14  1  0  0  0
 14 15  2  0  0  0
  6  1  1  0  0  0
 29 23  1  0  0  0
 15  7  1  0  0  0
 14 10  1  0  0  0
 16 19  1  0  0  0
M  END
> <minimizedAffinity>
-9.05906

> <CNNscore>
0.3409922719

> <CNNaffinity>
5.1595215797

> <CNN_VS>
1.7593569756

> <CNNaffinity_variance>
0.3369275630

$$$$
[H]OC(=O)c1c([H])c(-c2c([H])c([H])c3c(c2[H])C([H])([H])C([H])([H])S3)c([H])c([H])c1C([H])([H])OC([H])([H])c1c([H])c([H])c([H])c(F)c1[H]


 29 32  0  0  0  0  0  0  0  0999 V2000
   56.2646   -4.8905   -8.5881 C   0  0  0  0  0  0  0  0  0  0  0  0
   56.8602   -4.6563   -9.8208 C   0  0  0  0  0  0  0  0  0  0  0  0
   56.2177   -4.1140  -10.9020 C   0  0  0  0  0  0  0  0  0  0  0  0
   54.8958   -3.7775  -10.7638 C   0  0  0  0  0  0  0  0  0  0  0  0
   54.2678   -3.9940   -9.5569 C   0  0  0  0  0  0  0  0  0  0  0  0
   54.9406   -4.5473   -8.4690 C   0  0  0  0  0  0  0  0  0  0  0  0
   56.9515   -3.9069  -12.1785 C   0  0  0  0  0  0  0  0  0  0  0  0
   58.3189   -3.7981  -12.1084 C   0  0  0  0  0  0  0  0  0  0  0  0
   59.0272   -3.6043  -13.2830 C   0  0  0  0  0  0  0  0  0  0  0  0
   58.3561   -3.5269  -14.4713 C   0  0  0  0  0  0  0  0  0  0  0  0
   58.9510   -3.2646  -16.1317 S   0  0  0  0  0  0  0  0  0  0  0  0
   57.3130   -2.7514  -16.8195 C   0  0  0  0  0  0  0  0  0  0  0  0
   56.4359   -3.5423  -15.9044 C   0  0  0  0  0  0  0  0  0  0  0  0
   56.9932   -3.6329  -14.5699 C   0  0  0  0  0  0  0  0  0  0  0  0
   56.3120   -3.8273  -13.3660 C   0  0  0  0  0  0  0  0  0  0  0  0
   58.4132   -5.5996   -7.6242 O   0  0  0  0  0  0  0  0  0  0  0  0
   57.0556   -5.4643   -7.5255 C   0  0  0  0  0  0  0  0  0  0  0  0
   56.4954   -5.8537   -6.4781 O   0  0  0  0  0  0  0  0  0  0  0  0
   58.8920   -6.4968   -7.7409 H   0  0  0  0  0  0  0  0  0  0  0  0
   54.2395   -4.7741   -7.1846 C   0  0  0  0  0  0  0  0  0  0  0  0
   52.8486   -4.8355   -7.4662 O   0  0  0  0  0  0  0  0  0  0  0  0
   52.2458   -5.2930   -6.2979 C   0  0  0  0  0  0  0  0  0  0  0  0
   51.0809   -4.4591   -5.9177 C   0  0  0  0  0  0  0  0  0  0  0  0
   50.7095   -3.3902   -6.6901 C   0  0  0  0  0  0  0  0  0  0  0  0
   49.6278   -2.6155   -6.3408 C   0  0  0  0  0  0  0  0  0  0  0  0
   48.9181   -2.9230   -5.2051 C   0  0  0  0  0  0  0  0  0  0  0  0
   49.2961   -3.9964   -4.4350 C   0  0  0  0  0  0  0  0  0  0  0  0
   48.5858   -4.2979   -3.3052 F   0  0  0  0  0  0  0  0  0  0  0  0
   50.3783   -4.7644   -4.7923 C   0  0  0  0  0  0  0  0  0  0  0  0
 16 17  1  0  0  0
 17 18  2  0  0  0
 17  1  1  0  0  0
  1  2  2  0  0  0
  2  3  1  0  0  0
  3  4  2  0  0  0
  4  5  1  0  0  0
  5  6  2  0  0  0
  6 20  1  0  0  0
 20 21  1  0  0  0
 21 22  1  0  0  0
 22 23  1  0  0  0
 23 24  2  0  0  0
 24 25  1  0  0  0
 25 26  2  0  0  0
 26 27  1  0  0  0
 27 28  1  0  0  0
 27 29  2  0  0  0
  3  7  1  0  0  0
  7  8  2  0  0  0
  8  9  1  0  0  0
  9 10  2  0  0  0
 10 11  1  0  0  0
 11 12  1  0  0  0
 12 13  1  0  0  0
 13 14  1  0  0  0
 14 15  2  0  0  0
  6  1  1  0  0  0
 29 23  1  0  0  0
 15  7  1  0  0  0
 14 10  1  0  0  0
 16 19  1  0  0  0
M  END
> <minimizedAffinity>
-10.30655

> <CNNscore>
0.3345529437

> <CNNaffinity>
5.5954041481

> <CNN_VS>
1.8719589710

> <CNNaffinity_variance>
0.3814533353

$$$$
[H]OC(=O)c1c([H])c(-c2c([H])c([H])c3c(c2[H])C([H])([H])C([H])([H])S3)c([H])c([H])c1C([H])([H])OC([H])([H])c1c([H])c([H])c([H])c(F)c1[H]


 29 32  0  0  0  0  0  0  0  0999 V2000
   57.9961   -5.2136   -9.9163 C   0  0  0  0  0  0  0  0  0  0  0  0
   58.0838   -4.8505  -11.2541 C   0  0  0  0  0  0  0  0  0  0  0  0
   57.1104   -4.1731  -11.9393 C   0  0  0  0  0  0  0  0  0  0  0  0
   55.9688   -3.8273  -11.2634 C   0  0  0  0  0  0  0  0  0  0  0  0
   55.8424   -4.1691   -9.9348 C   0  0  0  0  0  0  0  0  0  0  0  0
   56.8455   -4.8588   -9.2564 C   0  0  0  0  0  0  0  0  0  0  0  0
   57.3067   -3.8347  -13.3738 C   0  0  0  0  0  0  0  0  0  0  0  0
   56.1945   -3.8381  -14.1796 C   0  0  0  0  0  0  0  0  0  0  0  0
   56.3492   -3.5267  -15.5205 C   0  0  0  0  0  0  0  0  0  0  0  0
   57.5917   -3.2265  -16.0050 C   0  0  0  0  0  0  0  0  0  0  0  0
   58.1320   -2.8122  -17.6530 S   0  0  0  0  0  0  0  0  0  0  0  0
   59.9168   -3.1851  -17.3449 C   0  0  0  0  0  0  0  0  0  0  0  0
   59.9571   -2.8637  -15.8865 C   0  0  0  0  0  0  0  0  0  0  0  0
   58.7175   -3.2150  -15.2235 C   0  0  0  0  0  0  0  0  0  0  0  0
   58.5239   -3.5341  -13.8774 C   0  0  0  0  0  0  0  0  0  0  0  0
   59.5382   -7.1252   -9.7906 O   0  0  0  0  0  0  0  0  0  0  0  0
   59.0969   -5.9232   -9.3093 C   0  0  0  0  0  0  0  0  0  0  0  0
   59.6729   -5.4359   -8.3127 O   0  0  0  0  0  0  0  0  0  0  0  0
   59.3974   -8.0196   -9.3131 H   0  0  0  0  0  0  0  0  0  0  0  0
   56.6811   -5.2184   -7.8295 C   0  0  0  0  0  0  0  0  0  0  0  0
   55.5995   -4.4506   -7.3209 O   0  0  0  0  0  0  0  0  0  0  0  0
   54.5604   -5.3527   -7.1117 C   0  0  0  0  0  0  0  0  0  0  0  0
   53.2389   -4.6814   -7.1248 C   0  0  0  0  0  0  0  0  0  0  0  0
   52.2245   -5.1278   -6.3194 C   0  0  0  0  0  0  0  0  0  0  0  0
   50.9976   -4.5058   -6.3281 C   0  0  0  0  0  0  0  0  0  0  0  0
   50.7954   -3.4273   -7.1551 C   0  0  0  0  0  0  0  0  0  0  0  0
   51.8171   -2.9849   -7.9603 C   0  0  0  0  0  0  0  0  0  0  0  0
   51.6101   -1.9106   -8.7818 F   0  0  0  0  0  0  0  0  0  0  0  0
   53.0394   -3.6129   -7.9445 C   0  0  0  0  0  0  0  0  0  0  0  0
 16 17  1  0  0  0
 17 18  2  0  0  0
 17  1  1  0  0  0
  1  2  2  0  0  0
  2  3  1  0  0  0
  3  4  2  0  0  0
  4  5  1  0  0  0
  5  6  2  0  0  0
  6 20  1  0  0  0
 20 21  1  0  0  0
 21 22  1  0  0  0
 22 23  1  0  0  0
 23 24  2  0  0  0
 24 25  1  0  0  0
 25 26  2  0  0  0
 26 27  1  0  0  0
 27 28  1  0  0  0
 27 29  2  0  0  0
  3  7  1  0  0  0
  7  8  2  0  0  0
  8  9  1  0  0  0
  9 10  2  0  0  0
 10 11  1  0  0  0
 11 12  1  0  0  0
 12 13  1  0  0  0
 13 14  1  0  0  0
 14 15  2  0  0  0
  6  1  1  0  0  0
 29 23  1  0  0  0
 15  7  1  0  0  0
 14 10  1  0  0  0
 16 19  1  0  0  0
M  END
> <minimizedAffinity>
-9.63695

> <CNNscore>
0.3300905526

> <CNNaffinity>
5.6385316849

> <CNN_VS>
1.8612260818

> <CNNaffinity_variance>
0.3238726556

$$$$
[H]OC(=O)c1c([H])c(-c2c([H])c([H])c3c(c2[H])C([H])([H])C([H])([H])S3)c([H])c([H])c1C([H])([H])OC([H])([H])c1c([H])c([H])c([H])c(F)c1[H]


 29 32  0  0  0  0  0  0  0  0999 V2000
   57.4551   -4.6541  -10.8277 C   0  0  0  0  0  0  0  0  0  0  0  0
   58.6453   -5.3329  -10.5995 C   0  0  0  0  0  0  0  0  0  0  0  0
   59.0513   -5.7967   -9.3764 C   0  0  0  0  0  0  0  0  0  0  0  0
   58.2306   -5.5787   -8.2999 C   0  0  0  0  0  0  0  0  0  0  0  0
   57.0409   -4.9089   -8.4840 C   0  0  0  0  0  0  0  0  0  0  0  0
   56.6468   -4.4452   -9.7377 C   0  0  0  0  0  0  0  0  0  0  0  0
   60.3483   -6.5113   -9.2432 C   0  0  0  0  0  0  0  0  0  0  0  0
   60.4318   -7.7710   -9.7843 C   0  0  0  0  0  0  0  0  0  0  0  0
   61.6288   -8.4594   -9.6739 C   0  0  0  0  0  0  0  0  0  0  0  0
   62.6874   -7.8752   -9.0362 C   0  0  0  0  0  0  0  0  0  0  0  0
   64.3305   -8.4841   -8.7062 S   0  0  0  0  0  0  0  0  0  0  0  0
   64.6980   -7.2630   -7.3671 C   0  0  0  0  0  0  0  0  0  0  0  0
   63.8445   -6.1393   -7.8578 C   0  0  0  0  0  0  0  0  0  0  0  0
   62.6317   -6.6202   -8.4883 C   0  0  0  0  0  0  0  0  0  0  0  0
   61.4096   -5.9562   -8.6180 C   0  0  0  0  0  0  0  0  0  0  0  0
   57.1151   -2.8981  -12.5156 O   0  0  0  0  0  0  0  0  0  0  0  0
   57.1415   -4.2210  -12.1686 C   0  0  0  0  0  0  0  0  0  0  0  0
   56.8841   -5.0703  -13.0489 O   0  0  0  0  0  0  0  0  0  0  0  0
   56.2582   -2.3772  -12.7210 H   0  0  0  0  0  0  0  0  0  0  0  0
   55.3650   -3.7234   -9.9061 C   0  0  0  0  0  0  0  0  0  0  0  0
   54.4754   -4.2007   -8.9068 O   0  0  0  0  0  0  0  0  0  0  0  0
   53.3296   -3.4177   -9.0148 C   0  0  0  0  0  0  0  0  0  0  0  0
   52.3753   -3.6854   -7.9128 C   0  0  0  0  0  0  0  0  0  0  0  0
   52.5431   -4.7731   -7.0967 C   0  0  0  0  0  0  0  0  0  0  0  0
   51.6601   -5.0231   -6.0720 C   0  0  0  0  0  0  0  0  0  0  0  0
   50.6024   -4.1694   -5.8713 C   0  0  0  0  0  0  0  0  0  0  0  0
   50.4400   -3.0805   -6.6935 C   0  0  0  0  0  0  0  0  0  0  0  0
   49.3848   -2.2338   -6.4891 F   0  0  0  0  0  0  0  0  0  0  0  0
   51.3275   -2.8391   -7.7146 C   0  0  0  0  0  0  0  0  0  0  0  0
 16 17  1  0  0  0
 17 18  2  0  0  0
 17  1  1  0  0  0
  1  2  2  0  0  0
  2  3  1  0  0  0
  3  4  2  0  0  0
  4  5  1  0  0  0
  5  6  2  0  0  0
  6 20  1  0  0  0
 20 21  1  0  0  0
 21 22  1  0  0  0
 22 23  1  0  0  0
 23 24  2  0  0  0
 24 25  1  0  0  0
 25 26  2  0  0  0
 26 27  1  0  0  0
 27 28  1  0  0  0
 27 29  2  0  0  0
  3  7  1  0  0  0
  7  8  2  0  0  0
  8  9  1  0  0  0
  9 10  2  0  0  0
 10 11  1  0  0  0
 11 12  1  0  0  0
 12 13  1  0  0  0
 13 14  1  0  0  0
 14 15  2  0  0  0
  6  1  1  0  0  0
 29 23  1  0  0  0
 15  7  1  0  0  0
 14 10  1  0  0  0
 16 19  1  0  0  0
M  END
> <minimizedAffinity>
-9.28796

> <CNNscore>
0.3271503747

> <CNNaffinity>
5.1806788445

> <CNN_VS>
1.6948610544

> <CNNaffinity_variance>
0.3133725524

$$$$
[H]OC(=O)c1c([H])c(-c2c([H])c([H])c3c(c2[H])C([H])([H])C([H])([H])S3)c([H])c([H])c1C([H])([H])OC([H])([H])c1c([H])c([H])c([H])c(F)c1[H]


 29 32  0  0  0  0  0  0  0  0999 V2000
   57.0228   -4.8089   -9.1056 C   0  0  0  0  0  0  0  0  0  0  0  0
   57.5819   -4.5492  -10.3503 C   0  0  0  0  0  0  0  0  0  0  0  0
   56.8909   -4.0486  -11.4217 C   0  0  0  0  0  0  0  0  0  0  0  0
   55.5553   -3.7838  -11.2602 C   0  0  0  0  0  0  0  0  0  0  0  0
   54.9625   -4.0277  -10.0407 C   0  0  0  0  0  0  0  0  0  0  0  0
   55.6844   -4.5376   -8.9632 C   0  0  0  0  0  0  0  0  0  0  0  0
   57.5885   -3.8087  -12.7126 C   0  0  0  0  0  0  0  0  0  0  0  0
   56.8099   -3.7026  -13.8391 C   0  0  0  0  0  0  0  0  0  0  0  0
   57.4345   -3.4794  -15.0552 C   0  0  0  0  0  0  0  0  0  0  0  0
   58.7962   -3.3710  -15.1051 C   0  0  0  0  0  0  0  0  0  0  0  0
   59.8957   -3.1120  -16.4849 S   0  0  0  0  0  0  0  0  0  0  0  0
   61.4116   -3.7041  -15.6070 C   0  0  0  0  0  0  0  0  0  0  0  0
   61.0209   -3.3213  -14.2167 C   0  0  0  0  0  0  0  0  0  0  0  0
   59.5966   -3.4720  -13.9972 C   0  0  0  0  0  0  0  0  0  0  0  0
   58.9329   -3.6975  -12.7889 C   0  0  0  0  0  0  0  0  0  0  0  0
   57.3426   -5.8734   -6.9119 O   0  0  0  0  0  0  0  0  0  0  0  0
   57.8634   -5.3330   -8.0556 C   0  0  0  0  0  0  0  0  0  0  0  0
   59.1064   -5.2979   -8.1823 O   0  0  0  0  0  0  0  0  0  0  0  0
   57.3907   -5.4244   -5.9932 H   0  0  0  0  0  0  0  0  0  0  0  0
   55.0206   -4.7954   -7.6650 C   0  0  0  0  0  0  0  0  0  0  0  0
   53.8194   -4.0374   -7.6454 O   0  0  0  0  0  0  0  0  0  0  0  0
   52.8183   -4.9246   -7.2605 C   0  0  0  0  0  0  0  0  0  0  0  0
   51.6084   -4.2141   -6.7825 C   0  0  0  0  0  0  0  0  0  0  0  0
   51.1401   -3.1128   -7.4495 C   0  0  0  0  0  0  0  0  0  0  0  0
   50.0165   -2.4524   -7.0093 C   0  0  0  0  0  0  0  0  0  0  0  0
   49.3633   -2.9077   -5.8895 C   0  0  0  0  0  0  0  0  0  0  0  0
   49.8385   -4.0128   -5.2254 C   0  0  0  0  0  0  0  0  0  0  0  0
   49.1841   -4.4616   -4.1108 F   0  0  0  0  0  0  0  0  0  0  0  0
   50.9618   -4.6659   -5.6729 C   0  0  0  0  0  0  0  0  0  0  0  0
 16 17  1  0  0  0
 17 18  2  0  0  0
 17  1  1  0  0  0
  1  2  2  0  0  0
  2  3  1  0  0  0
  3  4  2  0  0  0
  4  5  1  0  0  0
  5  6  2  0  0  0
  6 20  1  0  0  0
 20 21  1  0  0  0
 21 22  1  0  0  0
 22 23  1  0  0  0
 23 24  2  0  0  0
 24 25  1  0  0  0
 25 26  2  0  0  0
 26 27  1  0  0  0
 27 28  1  0  0  0
 27 29  2  0  0  0
  3  7  1  0  0  0
  7  8  2  0  0  0
  8  9  1  0  0  0
  9 10  2  0  0  0
 10 11  1  0  0  0
 11 12  1  0  0  0
 12 13  1  0  0  0
 13 14  1  0  0  0
 14 15  2  0  0  0
  6  1  1  0  0  0
 29 23  1  0  0  0
 15  7  1  0  0  0
 14 10  1  0  0  0
 16 19  1  0  0  0
M  END
> <minimizedAffinity>
-10.33063

> <CNNscore>
0.3184129298

> <CNNaffinity>
5.4688758850

> <CNN_VS>
1.7413607836

> <CNNaffinity_variance>
0.3137642741

$$$$
[H]OC(=O)c1c([H])c(-c2c([H])c([H])c3c(c2[H])C([H])([H])C([H])([H])S3)c([H])c([H])c1C([H])([H])OC([H])([H])c1c([H])c([H])c([H])c(F)c1[H]


 29 32  0  0  0  0  0  0  0  0999 V2000
   55.7542   -4.6764   -8.2943 C   0  0  0  0  0  0  0  0  0  0  0  0
   54.5446   -4.4299   -7.6577 C   0  0  0  0  0  0  0  0  0  0  0  0
   53.4310   -3.9268   -8.2763 C   0  0  0  0  0  0  0  0  0  0  0  0
   53.5100   -3.6452   -9.6158 C   0  0  0  0  0  0  0  0  0  0  0  0
   54.6923   -3.8753  -10.2844 C   0  0  0  0  0  0  0  0  0  0  0  0
   55.8140   -4.3879   -9.6354 C   0  0  0  0  0  0  0  0  0  0  0  0
   52.1846   -3.6994   -7.4981 C   0  0  0  0  0  0  0  0  0  0  0  0
   51.4147   -2.6160   -7.8445 C   0  0  0  0  0  0  0  0  0  0  0  0
   50.2483   -2.3806   -7.1354 C   0  0  0  0  0  0  0  0  0  0  0  0
   49.8946   -3.2230   -6.1187 C   0  0  0  0  0  0  0  0  0  0  0  0
   48.4965   -3.1930   -5.0122 S   0  0  0  0  0  0  0  0  0  0  0  0
   49.2561   -4.3096   -3.7491 C   0  0  0  0  0  0  0  0  0  0  0  0
   50.1242   -5.1120   -4.6626 C   0  0  0  0  0  0  0  0  0  0  0  0
   50.6434   -4.3111   -5.7528 C   0  0  0  0  0  0  0  0  0  0  0  0
   51.8125   -4.5171   -6.4890 C   0  0  0  0  0  0  0  0  0  0  0  0
   56.6677   -6.1720   -6.5690 O   0  0  0  0  0  0  0  0  0  0  0  0
   56.8529   -5.2138   -7.5275 C   0  0  0  0  0  0  0  0  0  0  0  0
   58.0137   -4.7995   -7.7353 O   0  0  0  0  0  0  0  0  0  0  0  0
   56.7508   -5.9994   -5.5635 H   0  0  0  0  0  0  0  0  0  0  0  0
   57.0741   -4.6206  -10.3774 C   0  0  0  0  0  0  0  0  0  0  0  0
   57.2255   -3.5519  -11.3009 O   0  0  0  0  0  0  0  0  0  0  0  0
   58.1143   -4.0111  -12.2687 C   0  0  0  0  0  0  0  0  0  0  0  0
   57.5069   -4.0031  -13.6207 C   0  0  0  0  0  0  0  0  0  0  0  0
   56.3775   -4.7342  -13.8796 C   0  0  0  0  0  0  0  0  0  0  0  0
   55.8104   -4.7274  -15.1329 C   0  0  0  0  0  0  0  0  0  0  0  0
   56.3879   -3.9776  -16.1291 C   0  0  0  0  0  0  0  0  0  0  0  0
   57.5205   -3.2467  -15.8625 C   0  0  0  0  0  0  0  0  0  0  0  0
   58.0913   -2.5021  -16.8583 F   0  0  0  0  0  0  0  0  0  0  0  0
   58.0797   -3.2600  -14.6072 C   0  0  0  0  0  0  0  0  0  0  0  0
 16 17  1  0  0  0
 17 18  2  0  0  0
 17  1  1  0  0  0
  1  2  2  0  0  0
  2  3  1  0  0  0
  3  4  2  0  0  0
  4  5  1  0  0  0
  5  6  2  0  0  0
  6 20  1  0  0  0
 20 21  1  0  0  0
 21 22  1  0  0  0
 22 23  1  0  0  0
 23 24  2  0  0  0
 24 25  1  0  0  0
 25 26  2  0  0  0
 26 27  1  0  0  0
 27 28  1  0  0  0
 27 29  2  0  0  0
  3  7  1  0  0  0
  7  8  2  0  0  0
  8  9  1  0  0  0
  9 10  2  0  0  0
 10 11  1  0  0  0
 11 12  1  0  0  0
 12 13  1  0  0  0
 13 14  1  0  0  0
 14 15  2  0  0  0
  6  1  1  0  0  0
 29 23  1  0  0  0
 15  7  1  0  0  0
 14 10  1  0  0  0
 16 19  1  0  0  0
M  END
> <minimizedAffinity>
-10.72367

> <CNNscore>
0.3171894848

> <CNNaffinity>
5.9981164932

> <CNN_VS>
1.9025394917

> <CNNaffinity_variance>
0.1416370571

$$$$
[H]OC(=O)c1c([H])c(-c2c([H])c([H])c3c(c2[H])C([H])([H])C([H])([H])S3)c([H])c([H])c1C([H])([H])OC([H])([H])c1c([H])c([H])c([H])c(F)c1[H]


 29 32  0  0  0  0  0  0  0  0999 V2000
   57.5816   -4.7013  -10.8500 C   0  0  0  0  0  0  0  0  0  0  0  0
   58.7563   -5.4032  -10.6120 C   0  0  0  0  0  0  0  0  0  0  0  0
   59.1407   -5.8792   -9.3867 C   0  0  0  0  0  0  0  0  0  0  0  0
   58.3130   -5.6499   -8.3179 C   0  0  0  0  0  0  0  0  0  0  0  0
   57.1381   -4.9571   -8.5118 C   0  0  0  0  0  0  0  0  0  0  0  0
   56.7660   -4.4813   -9.7677 C   0  0  0  0  0  0  0  0  0  0  0  0
   60.4225   -6.6186   -9.2427 C   0  0  0  0  0  0  0  0  0  0  0  0
   61.4369   -5.9937   -8.5593 C   0  0  0  0  0  0  0  0  0  0  0  0
   62.6421   -6.6602   -8.4110 C   0  0  0  0  0  0  0  0  0  0  0  0
   62.7921   -7.9107   -8.9422 C   0  0  0  0  0  0  0  0  0  0  0  0
   64.1931   -9.0137   -8.9510 S   0  0  0  0  0  0  0  0  0  0  0  0
   63.5766  -10.0594  -10.3460 C   0  0  0  0  0  0  0  0  0  0  0  0
   62.1107   -9.8847  -10.1170 C   0  0  0  0  0  0  0  0  0  0  0  0
   61.7969   -8.5574   -9.6276 C   0  0  0  0  0  0  0  0  0  0  0  0
   60.5962   -7.8555   -9.7580 C   0  0  0  0  0  0  0  0  0  0  0  0
   57.1180   -2.9350  -12.4973 O   0  0  0  0  0  0  0  0  0  0  0  0
   57.2903   -4.2574  -12.1924 C   0  0  0  0  0  0  0  0  0  0  0  0
   57.1895   -5.0963  -13.1134 O   0  0  0  0  0  0  0  0  0  0  0  0
   56.2154   -2.5155  -12.7360 H   0  0  0  0  0  0  0  0  0  0  0  0
   55.4997   -3.7349   -9.9466 C   0  0  0  0  0  0  0  0  0  0  0  0
   54.5868   -4.2079   -8.9665 O   0  0  0  0  0  0  0  0  0  0  0  0
   53.5083   -3.3285   -8.9981 C   0  0  0  0  0  0  0  0  0  0  0  0
   52.5142   -3.6401   -7.9438 C   0  0  0  0  0  0  0  0  0  0  0  0
   52.6764   -4.7359   -7.1375 C   0  0  0  0  0  0  0  0  0  0  0  0
   51.7564   -5.0266   -6.1569 C   0  0  0  0  0  0  0  0  0  0  0  0
   50.6672   -4.2057   -5.9909 C   0  0  0  0  0  0  0  0  0  0  0  0
   50.5107   -3.1085   -6.8031 C   0  0  0  0  0  0  0  0  0  0  0  0
   49.4241   -2.2945   -6.6333 F   0  0  0  0  0  0  0  0  0  0  0  0
   51.4352   -2.8262   -7.7799 C   0  0  0  0  0  0  0  0  0  0  0  0
 16 17  1  0  0  0
 17 18  2  0  0  0
 17  1  1  0  0  0
  1  2  2  0  0  0
  2  3  1  0  0  0
  3  4  2  0  0  0
  4  5  1  0  0  0
  5  6  2  0  0  0
  6 20  1  0  0  0
 20 21  1  0  0  0
 21 22  1  0  0  0
 22 23  1  0  0  0
 23 24  2  0  0  0
 24 25  1  0  0  0
 25 26  2  0  0  0
 26 27  1  0  0  0
 27 28  1  0  0  0
 27 29  2  0  0  0
  3  7  1  0  0  0
  7  8  2  0  0  0
  8  9  1  0  0  0
  9 10  2  0  0  0
 10 11  1  0  0  0
 11 12  1  0  0  0
 12 13  1  0  0  0
 13 14  1  0  0  0
 14 15  2  0  0  0
  6  1  1  0  0  0
 29 23  1  0  0  0
 15  7  1  0  0  0
 14 10  1  0  0  0
 16 19  1  0  0  0
M  END
> <minimizedAffinity>
-9.42272

> <CNNscore>
0.3153689206

> <CNNaffinity>
5.1807222366

> <CNN_VS>
1.6338387728

> <CNNaffinity_variance>
0.2710643411

$$$$
[H]OC(=O)c1c([H])c(-c2c([H])c([H])c3c(c2[H])C([H])([H])C([H])([H])S3)c([H])c([H])c1C([H])([H])OC([H])([H])c1c([H])c([H])c([H])c(F)c1[H]


 29 32  0  0  0  0  0  0  0  0999 V2000
   57.0917   -4.4645  -10.5751 C   0  0  0  0  0  0  0  0  0  0  0  0
   55.8291   -4.1245  -10.1065 C   0  0  0  0  0  0  0  0  0  0  0  0
   55.3977   -4.3280   -8.8226 C   0  0  0  0  0  0  0  0  0  0  0  0
   56.2675   -4.9067   -7.9347 C   0  0  0  0  0  0  0  0  0  0  0  0
   57.5297   -5.2590   -8.3601 C   0  0  0  0  0  0  0  0  0  0  0  0
   57.9485   -5.0430   -9.6716 C   0  0  0  0  0  0  0  0  0  0  0  0
   54.0220   -3.9268   -8.4260 C   0  0  0  0  0  0  0  0  0  0  0  0
   53.4997   -2.8014   -9.0152 C   0  0  0  0  0  0  0  0  0  0  0  0
   52.2199   -2.4048   -8.6633 C   0  0  0  0  0  0  0  0  0  0  0  0
   51.5145   -3.1350   -7.7481 C   0  0  0  0  0  0  0  0  0  0  0  0
   49.8836   -2.8918   -7.0694 S   0  0  0  0  0  0  0  0  0  0  0  0
   50.1465   -3.9843   -5.6009 C   0  0  0  0  0  0  0  0  0  0  0  0
   51.1321   -4.9294   -6.2070 C   0  0  0  0  0  0  0  0  0  0  0  0
   52.0109   -4.2616   -7.1458 C   0  0  0  0  0  0  0  0  0  0  0  0
   53.3038   -4.6312   -7.5242 C   0  0  0  0  0  0  0  0  0  0  0  0
   57.8963   -2.9734  -12.3576 O   0  0  0  0  0  0  0  0  0  0  0  0
   57.4244   -4.1920  -11.9531 C   0  0  0  0  0  0  0  0  0  0  0  0
   57.2812   -5.0877  -12.8131 O   0  0  0  0  0  0  0  0  0  0  0  0
   57.3556   -2.3063  -12.9147 H   0  0  0  0  0  0  0  0  0  0  0  0
   59.3091   -5.4364  -10.1033 C   0  0  0  0  0  0  0  0  0  0  0  0
   59.4742   -6.8107   -9.7841 O   0  0  0  0  0  0  0  0  0  0  0  0
   60.7152   -6.9082   -9.1612 C   0  0  0  0  0  0  0  0  0  0  0  0
   61.5306   -8.0076   -9.7298 C   0  0  0  0  0  0  0  0  0  0  0  0
   61.5256   -9.2486   -9.1493 C   0  0  0  0  0  0  0  0  0  0  0  0
   62.2800  -10.2714   -9.6758 C   0  0  0  0  0  0  0  0  0  0  0  0
   63.0429  -10.0384  -10.7945 C   0  0  0  0  0  0  0  0  0  0  0  0
   63.0432   -8.7914  -11.3716 C   0  0  0  0  0  0  0  0  0  0  0  0
   63.8049   -8.5651  -12.4854 F   0  0  0  0  0  0  0  0  0  0  0  0
   62.2863   -7.7759  -10.8383 C   0  0  0  0  0  0  0  0  0  0  0  0
 16 17  1  0  0  0
 17 18  2  0  0  0
 17  1  1  0  0  0
  1  2  2  0  0  0
  2  3  1  0  0  0
  3  4  2  0  0  0
  4  5  1  0  0  0
  5  6  2  0  0  0
  6 20  1  0  0  0
 20 21  1  0  0  0
 21 22  1  0  0  0
 22 23  1  0  0  0
 23 24  2  0  0  0
 24 25  1  0  0  0
 25 26  2  0  0  0
 26 27  1  0  0  0
 27 28  1  0  0  0
 27 29  2  0  0  0
  3  7  1  0  0  0
  7  8  2  0  0  0
  8  9  1  0  0  0
  9 10  2  0  0  0
 10 11  1  0  0  0
 11 12  1  0  0  0
 12 13  1  0  0  0
 13 14  1  0  0  0
 14 15  2  0  0  0
  6  1  1  0  0  0
 29 23  1  0  0  0
 15  7  1  0  0  0
 14 10  1  0  0  0
 16 19  1  0  0  0
M  END
> <minimizedAffinity>
-9.82399

> <CNNscore>
0.3099071383

> <CNNaffinity>
5.4578657150

> <CNN_VS>
1.6914315224

> <CNNaffinity_variance>
0.1627952158

$$$$
[H]N([H])[C@]([H])(N(C([H])([H])[H])C([H])([H])[H])C([H])([H])N1C(=O)C2([H])C([H])([H])C([H])(C1([H])[H])C2([H])[H]


 16 17  0  0  0  0  0  0  0  0999 V2000
   52.0144   -6.4728   -3.1912 C   0  0  0  0  0  0  0  0  0  0  0  0
   51.6079   -5.6251   -4.2593 N   0  0  0  0  0  0  0  0  0  0  0  0
   52.5747   -5.5769   -5.3989 C   0  0  0  0  0  0  0  0  0  0  0  0
   51.8736   -5.1726   -6.6474 C   0  0  0  0  0  0  0  0  0  0  0  0
   51.0917   -3.8911   -6.5558 C   0  0  0  0  0  0  0  0  0  0  0  0
   49.9958   -4.7193   -5.8778 C   0  0  0  0  0  0  0  0  0  0  0  0
   50.5204   -5.8957   -6.6737 C   0  0  0  0  0  0  0  0  0  0  0  0
   50.4752   -4.8313   -4.4430 C   0  0  0  0  0  0  0  0  0  0  0  0
   49.8003   -4.2055   -3.6271 O   0  0  0  0  0  0  0  0  0  0  0  0
   51.5447   -6.1783   -1.8275 C   0  0  0  0  0  0  0  0  0  0  0  0
   52.2262   -4.9365   -1.4030 N   0  0  0  0  0  0  0  0  0  0  0  0
   53.0928   -4.8238   -1.9356 H   0  0  0  0  0  0  0  0  0  0  0  0
   52.3417   -4.8851   -0.3864 H   0  0  0  0  0  0  0  0  0  0  0  0
   50.6283   -7.9969   -0.5579 C   0  0  0  0  0  0  0  0  0  0  0  0
   51.7968   -7.1898   -0.8683 N   0  0  0  0  0  0  0  0  0  0  0  0
   52.8494   -8.0892   -1.2391 C   0  0  0  0  0  0  0  0  0  0  0  0
 14 15  1  0  0  0
 15 16  1  0  0  0
 15 10  1  0  0  0
 10 11  1  0  0  0
 10  1  1  0  0  0
  1  2  1  0  0  0
  2  3  1  0  0  0
  3  4  1  0  0  0
  4  5  1  0  0  0
  5  6  1  0  0  0
  6  7  1  0  0  0
  6  8  1  0  0  0
  8  9  2  0  0  0
  8  2  1  0  0  0
  7  4  1  0  0  0
 11 12  1  0  0  0
 11 13  1  0  0  0
M  END
> <minimizedAffinity>
-5.47148

> <CNNscore>
0.5218411684

> <CNNaffinity>
4.9598827362

> <CNN_VS>
2.5882709026

> <CNNaffinity_variance>
0.0705054849

$$$$
[H]N([H])[C@]([H])(N(C([H])([H])[H])C([H])([H])[H])C([H])([H])N1C(=O)C2([H])C([H])([H])C([H])(C1([H])[H])C2([H])[H]


 16 17  0  0  0  0  0  0  0  0999 V2000
   59.7256   -9.5550   -3.1290 C   0  0  0  0  0  0  0  0  0  0  0  0
   61.0153   -9.0943   -3.5149 N   0  0  0  0  0  0  0  0  0  0  0  0
   61.7161   -9.9910   -4.4848 C   0  0  0  0  0  0  0  0  0  0  0  0
   62.7321   -9.2203   -5.2513 C   0  0  0  0  0  0  0  0  0  0  0  0
   63.7238   -8.4600   -4.4143 C   0  0  0  0  0  0  0  0  0  0  0  0
   62.6316   -7.3977   -4.2553 C   0  0  0  0  0  0  0  0  0  0  0  0
   62.1145   -7.8598   -5.6013 C   0  0  0  0  0  0  0  0  0  0  0  0
   61.7482   -7.9616   -3.1587 C   0  0  0  0  0  0  0  0  0  0  0  0
   61.7942   -7.3445   -2.0957 O   0  0  0  0  0  0  0  0  0  0  0  0
   59.5150  -10.0120   -1.7455 C   0  0  0  0  0  0  0  0  0  0  0  0
   59.2364  -11.4626   -1.8157 N   0  0  0  0  0  0  0  0  0  0  0  0
   58.8722  -11.6955   -2.7433 H   0  0  0  0  0  0  0  0  0  0  0  0
   58.6539  -11.7842   -1.0368 H   0  0  0  0  0  0  0  0  0  0  0  0
   58.9023   -8.3121   -0.1663 C   0  0  0  0  0  0  0  0  0  0  0  0
   58.4567   -9.3755   -1.0517 N   0  0  0  0  0  0  0  0  0  0  0  0
   57.4523   -8.8214   -1.9111 C   0  0  0  0  0  0  0  0  0  0  0  0
 14 15  1  0  0  0
 15 16  1  0  0  0
 15 10  1  0  0  0
 10 11  1  0  0  0
 10  1  1  0  0  0
  1  2  1  0  0  0
  2  3  1  0  0  0
  3  4  1  0  0  0
  4  5  1  0  0  0
  5  6  1  0  0  0
  6  7  1  0  0  0
  6  8  1  0  0  0
  8  9  2  0  0  0
  8  2  1  0  0  0
  7  4  1  0  0  0
 11 12  1  0  0  0
 11 13  1  0  0  0
M  END
> <minimizedAffinity>
-2.28793

> <CNNscore>
0.4479485452

> <CNNaffinity>
3.0794014931

> <CNN_VS>
1.3794133663

> <CNNaffinity_variance>
0.1737577319

$$$$
[H]N([H])[C@]([H])(N(C([H])([H])[H])C([H])([H])[H])C([H])([H])N1C(=O)C2([H])C([H])([H])C([H])(C1([H])[H])C2([H])[H]


 16 17  0  0  0  0  0  0  0  0999 V2000
   59.5680   -9.6801   -2.8900 C   0  0  0  0  0  0  0  0  0  0  0  0
   60.6066   -9.6973   -3.8625 N   0  0  0  0  0  0  0  0  0  0  0  0
   61.4128  -10.9566   -3.8687 C   0  0  0  0  0  0  0  0  0  0  0  0
   62.0533  -11.1469   -5.1981 C   0  0  0  0  0  0  0  0  0  0  0  0
   62.8744   -9.9847   -5.6851 C   0  0  0  0  0  0  0  0  0  0  0  0
   61.5472   -9.3457   -6.1054 C   0  0  0  0  0  0  0  0  0  0  0  0
   61.0246  -10.7574   -6.2681 C   0  0  0  0  0  0  0  0  0  0  0  0
   61.0129   -8.7595   -4.8124 C   0  0  0  0  0  0  0  0  0  0  0  0
   61.0080   -7.5302   -4.7707 O   0  0  0  0  0  0  0  0  0  0  0  0
   59.8547  -10.1665   -1.5305 C   0  0  0  0  0  0  0  0  0  0  0  0
   58.7908  -11.1368   -1.1939 N   0  0  0  0  0  0  0  0  0  0  0  0
   57.9595  -10.9409   -1.7578 H   0  0  0  0  0  0  0  0  0  0  0  0
   58.6183  -11.1896   -0.1855 H   0  0  0  0  0  0  0  0  0  0  0  0
   61.0215   -8.2561   -0.6657 C   0  0  0  0  0  0  0  0  0  0  0  0
   59.8980   -9.1680   -0.5265 N   0  0  0  0  0  0  0  0  0  0  0  0
   58.7092   -8.3710   -0.4517 C   0  0  0  0  0  0  0  0  0  0  0  0
 14 15  1  0  0  0
 15 16  1  0  0  0
 15 10  1  0  0  0
 10 11  1  0  0  0
 10  1  1  0  0  0
  1  2  1  0  0  0
  2  3  1  0  0  0
  3  4  1  0  0  0
  4  5  1  0  0  0
  5  6  1  0  0  0
  6  7  1  0  0  0
  6  8  1  0  0  0
  8  9  2  0  0  0
  8  2  1  0  0  0
  7  4  1  0  0  0
 11 12  1  0  0  0
 11 13  1  0  0  0
M  END
> <minimizedAffinity>
-2.32571

> <CNNscore>
0.4227092862

> <CNNaffinity>
3.1536481380

> <CNN_VS>
1.3330763578

> <CNNaffinity_variance>
0.2268452942

$$$$
[H]N([H])[C@]([H])(N(C([H])([H])[H])C([H])([H])[H])C([H])([H])N1C(=O)C2([H])C([H])([H])C([H])(C1([H])[H])C2([H])[H]


 16 17  0  0  0  0  0  0  0  0999 V2000
   52.3137   -5.6296   -7.2922 C   0  0  0  0  0  0  0  0  0  0  0  0
   53.5427   -4.9132   -7.2641 N   0  0  0  0  0  0  0  0  0  0  0  0
   54.4714   -5.3416   -6.1733 C   0  0  0  0  0  0  0  0  0  0  0  0
   55.8737   -4.9957   -6.5306 C   0  0  0  0  0  0  0  0  0  0  0  0
   56.1046   -3.5545   -6.8933 C   0  0  0  0  0  0  0  0  0  0  0  0
   55.5463   -3.9114   -8.2744 C   0  0  0  0  0  0  0  0  0  0  0  0
   56.0636   -5.3115   -8.0202 C   0  0  0  0  0  0  0  0  0  0  0  0
   54.0442   -3.8864   -8.0648 C   0  0  0  0  0  0  0  0  0  0  0  0
   53.4634   -2.9610   -8.6299 O   0  0  0  0  0  0  0  0  0  0  0  0
   51.1132   -5.0115   -6.7057 C   0  0  0  0  0  0  0  0  0  0  0  0
   51.0141   -3.6513   -7.2773 N   0  0  0  0  0  0  0  0  0  0  0  0
   51.9402   -3.3418   -7.5839 H   0  0  0  0  0  0  0  0  0  0  0  0
   50.5343   -3.0000   -6.6487 H   0  0  0  0  0  0  0  0  0  0  0  0
   49.9158   -4.2821   -4.7580 C   0  0  0  0  0  0  0  0  0  0  0  0
   51.1103   -4.9155   -5.2924 N   0  0  0  0  0  0  0  0  0  0  0  0
   51.2579   -6.1762   -4.6267 C   0  0  0  0  0  0  0  0  0  0  0  0
 14 15  1  0  0  0
 15 16  1  0  0  0
 15 10  1  0  0  0
 10 11  1  0  0  0
 10  1  1  0  0  0
  1  2  1  0  0  0
  2  3  1  0  0  0
  3  4  1  0  0  0
  4  5  1  0  0  0
  5  6  1  0  0  0
  6  7  1  0  0  0
  6  8  1  0  0  0
  8  9  2  0  0  0
  8  2  1  0  0  0
  7  4  1  0  0  0
 11 12  1  0  0  0
 11 13  1  0  0  0
M  END
> <minimizedAffinity>
-5.06045

> <CNNscore>
0.4028070569

> <CNNaffinity>
4.9681143761

> <CNN_VS>
2.0011916161

> <CNNaffinity_variance>
0.1491389573

$$$$
[H]N([H])[C@]([H])(N(C([H])([H])[H])C([H])([H])[H])C([H])([H])N1C(=O)C2([H])C([H])([H])C([H])(C1([H])[H])C2([H])[H]


 16 17  0  0  0  0  0  0  0  0999 V2000
   51.6055   -5.9206   -5.2022 C   0  0  0  0  0  0  0  0  0  0  0  0
   51.0634   -4.6986   -5.6893 N   0  0  0  0  0  0  0  0  0  0  0  0
   51.8075   -4.1241   -6.8522 C   0  0  0  0  0  0  0  0  0  0  0  0
   50.9164   -3.2273   -7.6366 C   0  0  0  0  0  0  0  0  0  0  0  0
   50.2436   -2.1407   -6.8437 C   0  0  0  0  0  0  0  0  0  0  0  0
   49.2414   -3.2128   -6.4046 C   0  0  0  0  0  0  0  0  0  0  0  0
   49.5397   -3.8998   -7.7205 C   0  0  0  0  0  0  0  0  0  0  0  0
   49.9665   -3.9364   -5.2859 C   0  0  0  0  0  0  0  0  0  0  0  0
   49.4909   -3.7556   -4.1660 O   0  0  0  0  0  0  0  0  0  0  0  0
   52.4676   -5.8940   -4.0092 C   0  0  0  0  0  0  0  0  0  0  0  0
   53.8312   -6.2419   -4.4633 N   0  0  0  0  0  0  0  0  0  0  0  0
   53.7747   -6.7789   -5.3326 H   0  0  0  0  0  0  0  0  0  0  0  0
   54.3852   -6.6853   -3.7244 H   0  0  0  0  0  0  0  0  0  0  0  0
   53.1645   -7.0580   -2.0296 C   0  0  0  0  0  0  0  0  0  0  0  0
   52.0912   -6.7800   -2.9699 N   0  0  0  0  0  0  0  0  0  0  0  0
   50.9629   -6.3318   -2.2080 C   0  0  0  0  0  0  0  0  0  0  0  0
 14 15  1  0  0  0
 15 16  1  0  0  0
 15 10  1  0  0  0
 10 11  1  0  0  0
 10  1  1  0  0  0
  1  2  1  0  0  0
  2  3  1  0  0  0
  3  4  1  0  0  0
  4  5  1  0  0  0
  5  6  1  0  0  0
  6  7  1  0  0  0
  6  8  1  0  0  0
  8  9  2  0  0  0
  8  2  1  0  0  0
  7  4  1  0  0  0
 11 12  1  0  0  0
 11 13  1  0  0  0
M  END
> <minimizedAffinity>
-5.33636

> <CNNscore>
0.3888844848

> <CNNaffinity>
4.7788476944

> <CNN_VS>
1.8584197760

> <CNNaffinity_variance>
0.0607584901

$$$$
[H]N([H])[C@]([H])(N(C([H])([H])[H])C([H])([H])[H])C([H])([H])N1C(=O)C2([H])C([H])([H])C([H])(C1([H])[H])C2([H])[H]


 16 17  0  0  0  0  0  0  0  0999 V2000
   57.1597   -4.8290  -10.8861 C   0  0  0  0  0  0  0  0  0  0  0  0
   56.8804   -4.5726   -9.5147 N   0  0  0  0  0  0  0  0  0  0  0  0
   55.6869   -3.7003   -9.2900 C   0  0  0  0  0  0  0  0  0  0  0  0
   55.1321   -3.9336   -7.9293 C   0  0  0  0  0  0  0  0  0  0  0  0
   56.1183   -3.7898   -6.8029 C   0  0  0  0  0  0  0  0  0  0  0  0
   56.5860   -5.2045   -7.1582 C   0  0  0  0  0  0  0  0  0  0  0  0
   55.1786   -5.4440   -7.6627 C   0  0  0  0  0  0  0  0  0  0  0  0
   57.5111   -4.9838   -8.3399 C   0  0  0  0  0  0  0  0  0  0  0  0
   58.6999   -5.1968   -8.1066 O   0  0  0  0  0  0  0  0  0  0  0  0
   58.0218   -3.8932  -11.6264 C   0  0  0  0  0  0  0  0  0  0  0  0
   57.3012   -2.6030  -11.6783 N   0  0  0  0  0  0  0  0  0  0  0  0
   56.2970   -2.7686  -11.5709 H   0  0  0  0  0  0  0  0  0  0  0  0
   57.5555   -2.0490  -12.5016 H   0  0  0  0  0  0  0  0  0  0  0  0
   57.3596   -3.8891  -13.9330 C   0  0  0  0  0  0  0  0  0  0  0  0
   58.3505   -4.2874  -12.9467 N   0  0  0  0  0  0  0  0  0  0  0  0
   59.6203   -3.7986  -13.3972 C   0  0  0  0  0  0  0  0  0  0  0  0
 14 15  1  0  0  0
 15 16  1  0  0  0
 15 10  1  0  0  0
 10 11  1  0  0  0
 10  1  1  0  0  0
  1  2  1  0  0  0
  2  3  1  0  0  0
  3  4  1  0  0  0
  4  5  1  0  0  0
  5  6  1  0  0  0
  6  7  1  0  0  0
  6  8  1  0  0  0
  8  9  2  0  0  0
  8  2  1  0  0  0
  7  4  1  0  0  0
 11 12  1  0  0  0
 11 13  1  0  0  0
M  END
> <minimizedAffinity>
-5.47075

> <CNNscore>
0.3235634267

> <CNNaffinity>
4.0231947899

> <CNN_VS>
1.3017586470

> <CNNaffinity_variance>
0.1683313251

$$$$
[H]N([H])[C@]([H])(N(C([H])([H])[H])C([H])([H])[H])C([H])([H])N1C(=O)C2([H])C([H])([H])C([H])(C1([H])[H])C2([H])[H]


 16 17  0  0  0  0  0  0  0  0999 V2000
   53.3620   -4.5831   -8.2387 C   0  0  0  0  0  0  0  0  0  0  0  0
   52.4763   -4.7049   -7.1318 N   0  0  0  0  0  0  0  0  0  0  0  0
   51.2763   -3.8166   -7.2128 C   0  0  0  0  0  0  0  0  0  0  0  0
   50.1714   -4.3733   -6.3863 C   0  0  0  0  0  0  0  0  0  0  0  0
   50.5267   -4.6616   -4.9536 C   0  0  0  0  0  0  0  0  0  0  0  0
   51.1646   -5.9545   -5.4714 C   0  0  0  0  0  0  0  0  0  0  0  0
   50.1550   -5.8931   -6.5980 C   0  0  0  0  0  0  0  0  0  0  0  0
   52.5172   -5.4992   -5.9853 C   0  0  0  0  0  0  0  0  0  0  0  0
   53.4758   -5.8910   -5.3216 O   0  0  0  0  0  0  0  0  0  0  0  0
   54.0116   -3.2870   -8.4942 C   0  0  0  0  0  0  0  0  0  0  0  0
   53.5470   -2.8343   -9.8230 N   0  0  0  0  0  0  0  0  0  0  0  0
   53.2513   -3.6437  -10.3750 H   0  0  0  0  0  0  0  0  0  0  0  0
   54.2304   -2.2289  -10.2878 H   0  0  0  0  0  0  0  0  0  0  0  0
   55.9942   -3.7086   -7.2094 C   0  0  0  0  0  0  0  0  0  0  0  0
   55.4280   -3.3074   -8.4868 N   0  0  0  0  0  0  0  0  0  0  0  0
   55.9996   -4.1554   -9.4912 C   0  0  0  0  0  0  0  0  0  0  0  0
 14 15  1  0  0  0
 15 16  1  0  0  0
 15 10  1  0  0  0
 10 11  1  0  0  0
 10  1  1  0  0  0
  1  2  1  0  0  0
  2  3  1  0  0  0
  3  4  1  0  0  0
  4  5  1  0  0  0
  5  6  1  0  0  0
  6  7  1  0  0  0
  6  8  1  0  0  0
  8  9  2  0  0  0
  8  2  1  0  0  0
  7  4  1  0  0  0
 11 12  1  0  0  0
 11 13  1  0  0  0
M  END
> <minimizedAffinity>
-6.29609

> <CNNscore>
0.3077192307

> <CNNaffinity>
4.7438354492

> <CNN_VS>
1.4597693682

> <CNNaffinity_variance>
0.1356683671

$$$$
[H]N([H])[C@]([H])(N(C([H])([H])[H])C([H])([H])[H])C([H])([H])N1C(=O)C2([H])C([H])([H])C([H])(C1([H])[H])C2([H])[H]


 16 17  0  0  0  0  0  0  0  0999 V2000
   51.7327   -5.5740   -6.2209 C   0  0  0  0  0  0  0  0  0  0  0  0
   53.1294   -5.5494   -5.9505 N   0  0  0  0  0  0  0  0  0  0  0  0
   53.4855   -5.9492   -4.5544 C   0  0  0  0  0  0  0  0  0  0  0  0
   54.8889   -6.4410   -4.5058 C   0  0  0  0  0  0  0  0  0  0  0  0
   55.9168   -5.4992   -5.0702 C   0  0  0  0  0  0  0  0  0  0  0  0
   55.4907   -6.0120   -6.4494 C   0  0  0  0  0  0  0  0  0  0  0  0
   55.1208   -7.3045   -5.7529 C   0  0  0  0  0  0  0  0  0  0  0  0
   54.2293   -5.2231   -6.7447 C   0  0  0  0  0  0  0  0  0  0  0  0
   54.3419   -4.3964   -7.6484 O   0  0  0  0  0  0  0  0  0  0  0  0
   50.8714   -4.5403   -5.6237 C   0  0  0  0  0  0  0  0  0  0  0  0
   49.8868   -5.2463   -4.7758 N   0  0  0  0  0  0  0  0  0  0  0  0
   49.7795   -6.2087   -5.1068 H   0  0  0  0  0  0  0  0  0  0  0  0
   49.0085   -4.7267   -4.6860 H   0  0  0  0  0  0  0  0  0  0  0  0
   49.2694   -2.7777   -5.9173 C   0  0  0  0  0  0  0  0  0  0  0  0
   50.1764   -3.7225   -6.5483 N   0  0  0  0  0  0  0  0  0  0  0  0
   51.0352   -2.9731   -7.4173 C   0  0  0  0  0  0  0  0  0  0  0  0
 14 15  1  0  0  0
 15 16  1  0  0  0
 15 10  1  0  0  0
 10 11  1  0  0  0
 10  1  1  0  0  0
  1  2  1  0  0  0
  2  3  1  0  0  0
  3  4  1  0  0  0
  4  5  1  0  0  0
  5  6  1  0  0  0
  6  7  1  0  0  0
  6  8  1  0  0  0
  8  9  2  0  0  0
  8  2  1  0  0  0
  7  4  1  0  0  0
 11 12  1  0  0  0
 11 13  1  0  0  0
M  END
> <minimizedAffinity>
-5.13006

> <CNNscore>
0.3061420918

> <CNNaffinity>
5.0177226067

> <CNN_VS>
1.5361361504

> <CNNaffinity_variance>
0.0369264260

$$$$
[H]N([H])[C@]([H])(N(C([H])([H])[H])C([H])([H])[H])C([H])([H])N1C(=O)C2([H])C([H])([H])C([H])(C1([H])[H])C2([H])[H]


 16 17  0  0  0  0  0  0  0  0999 V2000
   62.1947   -7.5015   -9.9983 C   0  0  0  0  0  0  0  0  0  0  0  0
   63.2102   -7.2645   -9.0303 N   0  0  0  0  0  0  0  0  0  0  0  0
   64.4738   -6.7032   -9.5996 C   0  0  0  0  0  0  0  0  0  0  0  0
   65.2302   -5.9750   -8.5454 C   0  0  0  0  0  0  0  0  0  0  0  0
   65.5119   -6.7663   -7.2978 C   0  0  0  0  0  0  0  0  0  0  0  0
   64.0738   -6.4421   -6.8816 C   0  0  0  0  0  0  0  0  0  0  0  0
   64.2152   -5.1829   -7.7105 C   0  0  0  0  0  0  0  0  0  0  0  0
   63.2473   -7.4567   -7.6487 C   0  0  0  0  0  0  0  0  0  0  0  0
   62.7167   -8.3187   -6.9500 O   0  0  0  0  0  0  0  0  0  0  0  0
   61.8200   -8.8895  -10.3150 C   0  0  0  0  0  0  0  0  0  0  0  0
   60.7399   -9.2620   -9.3762 N   0  0  0  0  0  0  0  0  0  0  0  0
   60.7983   -8.6761   -8.5392 H   0  0  0  0  0  0  0  0  0  0  0  0
   60.7176  -10.2691   -9.1900 H   0  0  0  0  0  0  0  0  0  0  0  0
   62.4558  -11.0846   -9.5828 C   0  0  0  0  0  0  0  0  0  0  0  0
   62.8662   -9.8386  -10.2091 N   0  0  0  0  0  0  0  0  0  0  0  0
   63.4736  -10.1724  -11.4637 C   0  0  0  0  0  0  0  0  0  0  0  0
 14 15  1  0  0  0
 15 16  1  0  0  0
 15 10  1  0  0  0
 10 11  1  0  0  0
 10  1  1  0  0  0
  1  2  1  0  0  0
  2  3  1  0  0  0
  3  4  1  0  0  0
  4  5  1  0  0  0
  5  6  1  0  0  0
  6  7  1  0  0  0
  6  8  1  0  0  0
  8  9  2  0  0  0
  8  2  1  0  0  0
  7  4  1  0  0  0
 11 12  1  0  0  0
 11 13  1  0  0  0
M  END
> <minimizedAffinity>
-2.23166

> <CNNscore>
0.3013082147

> <CNNaffinity>
2.8563449383

> <CNN_VS>
0.8606401682

> <CNNaffinity_variance>
0.1550988704

$$$$
[H]OC(C([H])([H])[H])(C([H])([H])[H])[C@@]([H])(N([H])S(=O)(=O)c1c([H])c([H])c(N([H])C(=O)c2c([H])c([H])c(C(F)(F)F)c([H])c2[H])c([H])c1[H])C([H])(C([H])([H])[H])C([H])([H])[H]


 34 35  0  0  0  0  0  0  0  0999 V2000
   58.1721   -3.8988  -12.1520 C   0  0  0  0  0  0  0  0  0  0  0  0
   56.9824   -3.2152  -12.0969 C   0  0  0  0  0  0  0  0  0  0  0  0
   56.0281   -3.4582  -11.0957 C   0  0  0  0  0  0  0  0  0  0  0  0
   56.3019   -4.3881  -10.1658 C   0  0  0  0  0  0  0  0  0  0  0  0
   57.4887   -5.0993  -10.2024 C   0  0  0  0  0  0  0  0  0  0  0  0
   58.4206   -4.8494  -11.2007 C   0  0  0  0  0  0  0  0  0  0  0  0
   55.4665   -4.5048   -8.9940 N   0  0  0  0  0  0  0  0  0  0  0  0
   54.0971   -4.1377   -9.1701 C   0  0  0  0  0  0  0  0  0  0  0  0
   53.6666   -3.7955  -10.3018 O   0  0  0  0  0  0  0  0  0  0  0  0
   55.8661   -4.8322   -8.1309 H   0  0  0  0  0  0  0  0  0  0  0  0
   53.1429   -4.1277   -8.0441 C   0  0  0  0  0  0  0  0  0  0  0  0
   52.0938   -3.2468   -8.0187 C   0  0  0  0  0  0  0  0  0  0  0  0
   51.1539   -3.3598   -7.0100 C   0  0  0  0  0  0  0  0  0  0  0  0
   51.2697   -4.3395   -6.0426 C   0  0  0  0  0  0  0  0  0  0  0  0
   52.3206   -5.2218   -6.0660 C   0  0  0  0  0  0  0  0  0  0  0  0
   53.2707   -5.1135   -7.0802 C   0  0  0  0  0  0  0  0  0  0  0  0
   50.2232   -4.5301   -4.9698 C   0  0  0  0  0  0  0  0  0  0  0  0
   49.4672   -5.6321   -5.3525 F   0  0  0  0  0  0  0  0  0  0  0  0
   49.3585   -3.4346   -5.0018 F   0  0  0  0  0  0  0  0  0  0  0  0
   50.7865   -4.6924   -3.7546 F   0  0  0  0  0  0  0  0  0  0  0  0
   59.3990   -3.4453  -13.2719 S   0  0  0  0  0  0  0  0  0  0  0  0
   60.2659   -2.3052  -12.6348 O   0  0  0  0  0  0  0  0  0  0  0  0
   60.4377   -4.6115  -13.2774 O   0  0  0  0  0  0  0  0  0  0  0  0
   59.0592   -3.0406  -14.8354 N   0  0  0  0  0  0  0  0  0  0  0  0
   59.5916   -2.2287  -15.1796 H   0  0  0  0  0  0  0  0  0  0  0  0
   58.9778   -4.0295  -15.8605 C   0  0  0  0  0  0  0  0  0  0  0  0
   60.2322   -4.2572  -16.5963 C   0  0  0  0  0  0  0  0  0  0  0  0
   60.1036   -5.3570  -17.6323 C   0  0  0  0  0  0  0  0  0  0  0  0
   60.5971   -3.0072  -17.4204 C   0  0  0  0  0  0  0  0  0  0  0  0
   61.3348   -4.5680  -15.8361 O   0  0  0  0  0  0  0  0  0  0  0  0
   62.0982   -4.8383  -16.3741 H   0  0  0  0  0  0  0  0  0  0  0  0
   57.7685   -2.3794  -17.3547 C   0  0  0  0  0  0  0  0  0  0  0  0
   57.7378   -3.7158  -16.6912 C   0  0  0  0  0  0  0  0  0  0  0  0
   56.4413   -4.1113  -16.0977 C   0  0  0  0  0  0  0  0  0  0  0  0
 32 33  1  0  0  0
 33 34  1  0  0  0
 33 26  1  0  0  0
 26 24  1  0  0  0
 24 21  1  0  0  0
 21 22  2  0  0  0
 21 23  2  0  0  0
 21  1  1  0  0  0
  1  2  2  0  0  0
  2  3  1  0  0  0
  3  4  2  0  0  0
  4  7  1  0  0  0
  7  8  1  0  0  0
  8  9  2  0  0  0
  8 11  1  0  0  0
 11 12  2  0  0  0
 12 13  1  0  0  0
 13 14  2  0  0  0
 14 15  1  0  0  0
 15 16  2  0  0  0
 14 17  1  0  0  0
 17 18  1  0  0  0
 17 19  1  0  0  0
 17 20  1  0  0  0
  4  5  1  0  0  0
  5  6  2  0  0  0
 26 27  1  0  0  0
 27 28  1  0  0  0
 27 29  1  0  0  0
 27 30  1  0  0  0
  6  1  1  0  0  0
 16 11  1  0  0  0
 24 25  1  0  0  0
  7 10  1  0  0  0
 30 31  1  0  0  0
M  END
> <minimizedAffinity>
-6.69442

> <CNNscore>
0.4850450754

> <CNNaffinity>
6.0083627701

> <CNN_VS>
2.9143266678

> <CNNaffinity_variance>
0.2474226505

$$$$
[H]OC(C([H])([H])[H])(C([H])([H])[H])[C@@]([H])(N([H])S(=O)(=O)c1c([H])c([H])c(N([H])C(=O)c2c([H])c([H])c(C(F)(F)F)c([H])c2[H])c([H])c1[H])C([H])(C([H])([H])[H])C([H])([H])[H]


 34 35  0  0  0  0  0  0  0  0999 V2000
   56.1727   -5.2902   -6.1632 C   0  0  0  0  0  0  0  0  0  0  0  0
   56.7603   -4.7001   -7.2551 C   0  0  0  0  0  0  0  0  0  0  0  0
   57.9716   -5.1651   -7.7926 C   0  0  0  0  0  0  0  0  0  0  0  0
   58.5615   -6.2241   -7.2138 C   0  0  0  0  0  0  0  0  0  0  0  0
   57.9968   -6.8324   -6.1062 C   0  0  0  0  0  0  0  0  0  0  0  0
   56.8004   -6.3589   -5.5849 C   0  0  0  0  0  0  0  0  0  0  0  0
   59.6711   -6.8779   -7.8662 N   0  0  0  0  0  0  0  0  0  0  0  0
   60.3631   -6.0977   -8.8427 C   0  0  0  0  0  0  0  0  0  0  0  0
   60.0373   -4.9008   -9.0538 O   0  0  0  0  0  0  0  0  0  0  0  0
   59.9081   -7.8223   -7.6139 H   0  0  0  0  0  0  0  0  0  0  0  0
   61.4653   -6.6583   -9.6485 C   0  0  0  0  0  0  0  0  0  0  0  0
   61.4205   -6.6309  -11.0176 C   0  0  0  0  0  0  0  0  0  0  0  0
   62.5308   -7.0500  -11.7285 C   0  0  0  0  0  0  0  0  0  0  0  0
   63.6642   -7.4918  -11.0733 C   0  0  0  0  0  0  0  0  0  0  0  0
   63.7100   -7.5210   -9.7020 C   0  0  0  0  0  0  0  0  0  0  0  0
   62.5947   -7.0994   -8.9799 C   0  0  0  0  0  0  0  0  0  0  0  0
   64.9147   -7.8904  -11.8213 C   0  0  0  0  0  0  0  0  0  0  0  0
   64.5169   -8.8066  -12.7880 F   0  0  0  0  0  0  0  0  0  0  0  0
   65.7469   -8.5873  -10.9433 F   0  0  0  0  0  0  0  0  0  0  0  0
   65.5327   -6.8169  -12.3563 F   0  0  0  0  0  0  0  0  0  0  0  0
   54.5978   -4.8215   -5.6480 S   0  0  0  0  0  0  0  0  0  0  0  0
   54.0060   -5.9557   -4.7421 O   0  0  0  0  0  0  0  0  0  0  0  0
   54.8032   -3.6971   -4.5838 O   0  0  0  0  0  0  0  0  0  0  0  0
   53.4333   -4.3304   -6.7093 N   0  0  0  0  0  0  0  0  0  0  0  0
   53.7688   -4.2322   -7.6783 H   0  0  0  0  0  0  0  0  0  0  0  0
   52.1314   -4.9140   -6.7100 C   0  0  0  0  0  0  0  0  0  0  0  0
   52.0214   -6.1709   -7.4682 C   0  0  0  0  0  0  0  0  0  0  0  0
   53.0264   -7.2110   -7.0125 C   0  0  0  0  0  0  0  0  0  0  0  0
   50.6540   -6.8306   -7.2043 C   0  0  0  0  0  0  0  0  0  0  0  0
   52.1581   -6.0716   -8.8326 O   0  0  0  0  0  0  0  0  0  0  0  0
   52.2114   -6.9387   -9.2691 H   0  0  0  0  0  0  0  0  0  0  0  0
   51.7056   -2.7395   -7.9381 C   0  0  0  0  0  0  0  0  0  0  0  0
   51.1422   -3.8075   -7.0612 C   0  0  0  0  0  0  0  0  0  0  0  0
   50.2688   -3.3438   -5.9604 C   0  0  0  0  0  0  0  0  0  0  0  0
 32 33  1  0  0  0
 33 34  1  0  0  0
 33 26  1  0  0  0
 26 24  1  0  0  0
 24 21  1  0  0  0
 21 22  2  0  0  0
 21 23  2  0  0  0
 21  1  1  0  0  0
  1  2  2  0  0  0
  2  3  1  0  0  0
  3  4  2  0  0  0
  4  7  1  0  0  0
  7  8  1  0  0  0
  8  9  2  0  0  0
  8 11  1  0  0  0
 11 12  2  0  0  0
 12 13  1  0  0  0
 13 14  2  0  0  0
 14 15  1  0  0  0
 15 16  2  0  0  0
 14 17  1  0  0  0
 17 18  1  0  0  0
 17 19  1  0  0  0
 17 20  1  0  0  0
  4  5  1  0  0  0
  5  6  2  0  0  0
 26 27  1  0  0  0
 27 28  1  0  0  0
 27 29  1  0  0  0
 27 30  1  0  0  0
  6  1  1  0  0  0
 16 11  1  0  0  0
 24 25  1  0  0  0
  7 10  1  0  0  0
 30 31  1  0  0  0
M  END
> <minimizedAffinity>
3.57783

> <CNNscore>
0.4373052716

> <CNNaffinity>
5.6389579773

> <CNN_VS>
2.4659459591

> <CNNaffinity_variance>
1.1111147404

$$$$
[H]OC(C([H])([H])[H])(C([H])([H])[H])[C@@]([H])(N([H])S(=O)(=O)c1c([H])c([H])c(N([H])C(=O)c2c([H])c([H])c(C(F)(F)F)c([H])c2[H])c([H])c1[H])C([H])(C([H])([H])[H])C([H])([H])[H]


 34 35  0  0  0  0  0  0  0  0999 V2000
   54.6940   -5.7189   -8.3529 C   0  0  0  0  0  0  0  0  0  0  0  0
   54.0436   -5.1552   -9.4230 C   0  0  0  0  0  0  0  0  0  0  0  0
   54.7381   -4.6021  -10.5111 C   0  0  0  0  0  0  0  0  0  0  0  0
   56.0809   -4.6359  -10.4945 C   0  0  0  0  0  0  0  0  0  0  0  0
   56.7629   -5.1890   -9.4245 C   0  0  0  0  0  0  0  0  0  0  0  0
   56.0616   -5.7290   -8.3549 C   0  0  0  0  0  0  0  0  0  0  0  0
   56.8261   -4.2981  -11.6840 N   0  0  0  0  0  0  0  0  0  0  0  0
   58.0670   -3.6242  -11.4674 C   0  0  0  0  0  0  0  0  0  0  0  0
   58.4822   -3.4071  -10.2996 O   0  0  0  0  0  0  0  0  0  0  0  0
   56.4576   -4.5452  -12.5867 H   0  0  0  0  0  0  0  0  0  0  0  0
   58.8982   -3.1441  -12.5886 C   0  0  0  0  0  0  0  0  0  0  0  0
   59.9869   -2.3430  -12.3648 C   0  0  0  0  0  0  0  0  0  0  0  0
   60.8091   -2.0240  -13.4306 C   0  0  0  0  0  0  0  0  0  0  0  0
   60.5385   -2.5000  -14.6992 C   0  0  0  0  0  0  0  0  0  0  0  0
   59.4476   -3.3015  -14.9251 C   0  0  0  0  0  0  0  0  0  0  0  0
   58.6156   -3.6270  -13.8552 C   0  0  0  0  0  0  0  0  0  0  0  0
   61.4555   -2.2249  -15.8677 C   0  0  0  0  0  0  0  0  0  0  0  0
   61.3223   -3.3053  -16.7321 F   0  0  0  0  0  0  0  0  0  0  0  0
   62.7731   -2.2548  -15.4072 F   0  0  0  0  0  0  0  0  0  0  0  0
   61.1565   -1.0520  -16.4639 F   0  0  0  0  0  0  0  0  0  0  0  0
   53.8182   -6.5581   -7.1306 S   0  0  0  0  0  0  0  0  0  0  0  0
   54.4923   -7.9538   -6.8966 O   0  0  0  0  0  0  0  0  0  0  0  0
   54.1674   -5.8532   -5.7815 O   0  0  0  0  0  0  0  0  0  0  0  0
   52.1827   -6.7661   -7.2038 N   0  0  0  0  0  0  0  0  0  0  0  0
   51.7293   -6.8236   -6.2805 H   0  0  0  0  0  0  0  0  0  0  0  0
   51.3719   -5.9940   -8.0881 C   0  0  0  0  0  0  0  0  0  0  0  0
   50.9376   -6.7043   -9.3020 C   0  0  0  0  0  0  0  0  0  0  0  0
   51.8290   -7.8861   -9.6307 C   0  0  0  0  0  0  0  0  0  0  0  0
   49.5486   -7.3334   -9.0790 C   0  0  0  0  0  0  0  0  0  0  0  0
   50.8534   -5.9514  -10.4493 O   0  0  0  0  0  0  0  0  0  0  0  0
   50.6941   -6.4912  -11.2422 H   0  0  0  0  0  0  0  0  0  0  0  0
   51.2893   -3.4779   -7.8046 C   0  0  0  0  0  0  0  0  0  0  0  0
   52.0722   -4.6537   -8.2862 C   0  0  0  0  0  0  0  0  0  0  0  0
   52.7788   -4.4740   -9.5737 C   0  0  0  0  0  0  0  0  0  0  0  0
 32 33  1  0  0  0
 33 34  1  0  0  0
 33 26  1  0  0  0
 26 24  1  0  0  0
 24 21  1  0  0  0
 21 22  2  0  0  0
 21 23  2  0  0  0
 21  1  1  0  0  0
  1  2  2  0  0  0
  2  3  1  0  0  0
  3  4  2  0  0  0
  4  7  1  0  0  0
  7  8  1  0  0  0
  8  9  2  0  0  0
  8 11  1  0  0  0
 11 12  2  0  0  0
 12 13  1  0  0  0
 13 14  2  0  0  0
 14 15  1  0  0  0
 15 16  2  0  0  0
 14 17  1  0  0  0
 17 18  1  0  0  0
 17 19  1  0  0  0
 17 20  1  0  0  0
  4  5  1  0  0  0
  5  6  2  0  0  0
 26 27  1  0  0  0
 27 28  1  0  0  0
 27 29  1  0  0  0
 27 30  1  0  0  0
  6  1  1  0  0  0
 16 11  1  0  0  0
 24 25  1  0  0  0
  7 10  1  0  0  0
 30 31  1  0  0  0
M  END
> <minimizedAffinity>
26.14617

> <CNNscore>
0.4328231215

> <CNNaffinity>
5.5650944710

> <CNN_VS>
2.4087016582

> <CNNaffinity_variance>
1.3442792892

$$$$
[H]OC(C([H])([H])[H])(C([H])([H])[H])[C@@]([H])(N([H])S(=O)(=O)c1c([H])c([H])c(N([H])C(=O)c2c([H])c([H])c(C(F)(F)F)c([H])c2[H])c([H])c1[H])C([H])(C([H])([H])[H])C([H])([H])[H]


 34 35  0  0  0  0  0  0  0  0999 V2000
   57.1883   -4.4309  -11.2381 C   0  0  0  0  0  0  0  0  0  0  0  0
   55.8746   -4.2895  -11.6123 C   0  0  0  0  0  0  0  0  0  0  0  0
   54.8204   -4.4011  -10.6913 C   0  0  0  0  0  0  0  0  0  0  0  0
   55.1202   -4.6498   -9.4057 C   0  0  0  0  0  0  0  0  0  0  0  0
   56.4347   -4.8067   -9.0019 C   0  0  0  0  0  0  0  0  0  0  0  0
   57.4655   -4.6964   -9.9254 C   0  0  0  0  0  0  0  0  0  0  0  0
   54.0983   -4.5389   -8.3919 N   0  0  0  0  0  0  0  0  0  0  0  0
   53.0401   -3.6222   -8.6762 C   0  0  0  0  0  0  0  0  0  0  0  0
   53.0009   -3.0106   -9.7752 O   0  0  0  0  0  0  0  0  0  0  0  0
   54.1666   -5.0947   -7.5563 H   0  0  0  0  0  0  0  0  0  0  0  0
   51.9691   -3.3425   -7.6999 C   0  0  0  0  0  0  0  0  0  0  0  0
   51.1501   -2.2540   -7.8464 C   0  0  0  0  0  0  0  0  0  0  0  0
   50.0811   -2.1039   -6.9812 C   0  0  0  0  0  0  0  0  0  0  0  0
   49.8429   -3.0307   -5.9846 C   0  0  0  0  0  0  0  0  0  0  0  0
   50.6632   -4.1209   -5.8358 C   0  0  0  0  0  0  0  0  0  0  0  0
   51.7416   -4.2782   -6.7049 C   0  0  0  0  0  0  0  0  0  0  0  0
   48.6452   -2.9295   -5.0696 C   0  0  0  0  0  0  0  0  0  0  0  0
   48.6387   -1.6299   -4.5762 F   0  0  0  0  0  0  0  0  0  0  0  0
   48.8622   -3.7622   -3.9702 F   0  0  0  0  0  0  0  0  0  0  0  0
   47.5023   -3.2373   -5.7172 F   0  0  0  0  0  0  0  0  0  0  0  0
   58.4624   -4.0983  -12.3477 S   0  0  0  0  0  0  0  0  0  0  0  0
   58.9127   -2.6079  -12.1653 O   0  0  0  0  0  0  0  0  0  0  0  0
   59.7238   -4.8370  -11.7981 O   0  0  0  0  0  0  0  0  0  0  0  0
   58.3313   -4.4177  -13.9615 N   0  0  0  0  0  0  0  0  0  0  0  0
   58.0307   -5.3804  -14.1716 H   0  0  0  0  0  0  0  0  0  0  0  0
   57.6843   -3.5090  -14.8510 C   0  0  0  0  0  0  0  0  0  0  0  0
   56.6139   -4.1047  -15.6672 C   0  0  0  0  0  0  0  0  0  0  0  0
   55.7476   -5.0638  -14.8741 C   0  0  0  0  0  0  0  0  0  0  0  0
   55.6326   -3.0116  -16.1331 C   0  0  0  0  0  0  0  0  0  0  0  0
   57.0149   -4.7849  -16.7927 O   0  0  0  0  0  0  0  0  0  0  0  0
   56.2871   -5.2685  -17.2188 H   0  0  0  0  0  0  0  0  0  0  0  0
   58.3379   -2.1557  -16.8905 C   0  0  0  0  0  0  0  0  0  0  0  0
   58.7789   -2.7512  -15.5951 C   0  0  0  0  0  0  0  0  0  0  0  0
   60.1179   -3.3809  -15.5978 C   0  0  0  0  0  0  0  0  0  0  0  0
 32 33  1  0  0  0
 33 34  1  0  0  0
 33 26  1  0  0  0
 26 24  1  0  0  0
 24 21  1  0  0  0
 21 22  2  0  0  0
 21 23  2  0  0  0
 21  1  1  0  0  0
  1  2  2  0  0  0
  2  3  1  0  0  0
  3  4  2  0  0  0
  4  7  1  0  0  0
  7  8  1  0  0  0
  8  9  2  0  0  0
  8 11  1  0  0  0
 11 12  2  0  0  0
 12 13  1  0  0  0
 13 14  2  0  0  0
 14 15  1  0  0  0
 15 16  2  0  0  0
 14 17  1  0  0  0
 17 18  1  0  0  0
 17 19  1  0  0  0
 17 20  1  0  0  0
  4  5  1  0  0  0
  5  6  2  0  0  0
 26 27  1  0  0  0
 27 28  1  0  0  0
 27 29  1  0  0  0
 27 30  1  0  0  0
  6  1  1  0  0  0
 16 11  1  0  0  0
 24 25  1  0  0  0
  7 10  1  0  0  0
 30 31  1  0  0  0
M  END
> <minimizedAffinity>
-7.99279

> <CNNscore>
0.3647914827

> <CNNaffinity>
6.2493920326

> <CNN_VS>
2.2797250748

> <CNNaffinity_variance>
0.2788023055

$$$$
[H]OC(C([H])([H])[H])(C([H])([H])[H])[C@@]([H])(N([H])S(=O)(=O)c1c([H])c([H])c(N([H])C(=O)c2c([H])c([H])c(C(F)(F)F)c([H])c2[H])c([H])c1[H])C([H])(C([H])([H])[H])C([H])([H])[H]


 34 35  0  0  0  0  0  0  0  0999 V2000
   52.2935   -5.6694   -7.2145 C   0  0  0  0  0  0  0  0  0  0  0  0
   52.3874   -4.5889   -8.0570 C   0  0  0  0  0  0  0  0  0  0  0  0
   53.6234   -4.1101   -8.5211 C   0  0  0  0  0  0  0  0  0  0  0  0
   54.7413   -4.7406   -8.1246 C   0  0  0  0  0  0  0  0  0  0  0  0
   54.6772   -5.8260   -7.2681 C   0  0  0  0  0  0  0  0  0  0  0  0
   53.4476   -6.2853   -6.8157 C   0  0  0  0  0  0  0  0  0  0  0  0
   56.0037   -4.4366   -8.7557 N   0  0  0  0  0  0  0  0  0  0  0  0
   55.9734   -4.3232  -10.1795 C   0  0  0  0  0  0  0  0  0  0  0  0
   54.8879   -4.4288  -10.8071 O   0  0  0  0  0  0  0  0  0  0  0  0
   56.8255   -4.3168   -8.1882 H   0  0  0  0  0  0  0  0  0  0  0  0
   57.1999   -4.0967  -10.9687 C   0  0  0  0  0  0  0  0  0  0  0  0
   58.3437   -4.8054  -10.7105 C   0  0  0  0  0  0  0  0  0  0  0  0
   59.4271   -4.6522  -11.5570 C   0  0  0  0  0  0  0  0  0  0  0  0
   59.3616   -3.7987  -12.6416 C   0  0  0  0  0  0  0  0  0  0  0  0
   58.2169   -3.0873  -12.9007 C   0  0  0  0  0  0  0  0  0  0  0  0
   57.1216   -3.2377  -12.0519 C   0  0  0  0  0  0  0  0  0  0  0  0
   60.5036   -3.6631  -13.6211 C   0  0  0  0  0  0  0  0  0  0  0  0
   61.1125   -2.4443  -13.3455 F   0  0  0  0  0  0  0  0  0  0  0  0
   59.9679   -3.5491  -14.9053 F   0  0  0  0  0  0  0  0  0  0  0  0
   61.3628   -4.6988  -13.5235 F   0  0  0  0  0  0  0  0  0  0  0  0
   50.7616   -6.3492   -6.8192 S   0  0  0  0  0  0  0  0  0  0  0  0
   50.6303   -7.7410   -7.5282 O   0  0  0  0  0  0  0  0  0  0  0  0
   50.8584   -6.8064   -5.3290 O   0  0  0  0  0  0  0  0  0  0  0  0
   49.3502   -5.5178   -7.0202 N   0  0  0  0  0  0  0  0  0  0  0  0
   48.5063   -6.0883   -6.8667 H   0  0  0  0  0  0  0  0  0  0  0  0
   49.1615   -4.2216   -6.4545 C   0  0  0  0  0  0  0  0  0  0  0  0
   49.4979   -3.1042   -7.3517 C   0  0  0  0  0  0  0  0  0  0  0  0
   48.2991   -2.2279   -7.6585 C   0  0  0  0  0  0  0  0  0  0  0  0
   50.4916   -2.1507   -6.6603 C   0  0  0  0  0  0  0  0  0  0  0  0
   50.0504   -3.4434   -8.5641 O   0  0  0  0  0  0  0  0  0  0  0  0
   50.1283   -2.6847   -9.1670 H   0  0  0  0  0  0  0  0  0  0  0  0
   49.8200   -5.5592   -4.4063 C   0  0  0  0  0  0  0  0  0  0  0  0
   49.8261   -4.2285   -5.0818 C   0  0  0  0  0  0  0  0  0  0  0  0
   49.5385   -3.0642   -4.2151 C   0  0  0  0  0  0  0  0  0  0  0  0
 32 33  1  0  0  0
 33 34  1  0  0  0
 33 26  1  0  0  0
 26 24  1  0  0  0
 24 21  1  0  0  0
 21 22  2  0  0  0
 21 23  2  0  0  0
 21  1  1  0  0  0
  1  2  2  0  0  0
  2  3  1  0  0  0
  3  4  2  0  0  0
  4  7  1  0  0  0
  7  8  1  0  0  0
  8  9  2  0  0  0
  8 11  1  0  0  0
 11 12  2  0  0  0
 12 13  1  0  0  0
 13 14  2  0  0  0
 14 15  1  0  0  0
 15 16  2  0  0  0
 14 17  1  0  0  0
 17 18  1  0  0  0
 17 19  1  0  0  0
 17 20  1  0  0  0
  4  5  1  0  0  0
  5  6  2  0  0  0
 26 27  1  0  0  0
 27 28  1  0  0  0
 27 29  1  0  0  0
 27 30  1  0  0  0
  6  1  1  0  0  0
 16 11  1  0  0  0
 24 25  1  0  0  0
  7 10  1  0  0  0
 30 31  1  0  0  0
M  END
> <minimizedAffinity>
-3.58477

> <CNNscore>
0.2707900405

> <CNNaffinity>
5.8648352623

> <CNN_VS>
1.5881389380

> <CNNaffinity_variance>
0.2914810777

$$$$
[H]OC(C([H])([H])[H])(C([H])([H])[H])[C@@]([H])(N([H])S(=O)(=O)c1c([H])c([H])c(N([H])C(=O)c2c([H])c([H])c(C(F)(F)F)c([H])c2[H])c([H])c1[H])C([H])(C([H])([H])[H])C([H])([H])[H]


 34 35  0  0  0  0  0  0  0  0999 V2000
   54.4919   -5.0919   -6.6515 C   0  0  0  0  0  0  0  0  0  0  0  0
   53.5556   -4.8001   -7.6128 C   0  0  0  0  0  0  0  0  0  0  0  0
   53.8973   -4.1675   -8.8191 C   0  0  0  0  0  0  0  0  0  0  0  0
   55.1848   -3.8471   -9.0291 C   0  0  0  0  0  0  0  0  0  0  0  0
   56.1482   -4.1205   -8.0736 C   0  0  0  0  0  0  0  0  0  0  0  0
   55.7938   -4.7436   -6.8847 C   0  0  0  0  0  0  0  0  0  0  0  0
   55.6171   -3.4160  -10.3374 N   0  0  0  0  0  0  0  0  0  0  0  0
   56.6314   -4.2145  -10.9493 C   0  0  0  0  0  0  0  0  0  0  0  0
   57.0565   -5.2543  -10.3823 O   0  0  0  0  0  0  0  0  0  0  0  0
   55.1993   -2.6014  -10.7541 H   0  0  0  0  0  0  0  0  0  0  0  0
   57.2298   -3.8515  -12.2488 C   0  0  0  0  0  0  0  0  0  0  0  0
   58.5895   -3.7856  -12.4034 C   0  0  0  0  0  0  0  0  0  0  0  0
   59.1059   -3.5681  -13.6683 C   0  0  0  0  0  0  0  0  0  0  0  0
   58.2688   -3.4162  -14.7570 C   0  0  0  0  0  0  0  0  0  0  0  0
   56.9065   -3.4806  -14.6033 C   0  0  0  0  0  0  0  0  0  0  0  0
   56.3800   -3.7002  -13.3315 C   0  0  0  0  0  0  0  0  0  0  0  0
   58.8049   -3.2460  -16.1590 C   0  0  0  0  0  0  0  0  0  0  0  0
   60.1390   -3.6344  -16.1173 F   0  0  0  0  0  0  0  0  0  0  0  0
   58.8054   -1.8840  -16.4655 F   0  0  0  0  0  0  0  0  0  0  0  0
   58.0903   -3.9631  -17.0508 F   0  0  0  0  0  0  0  0  0  0  0  0
   54.0764   -6.0372   -5.2735 S   0  0  0  0  0  0  0  0  0  0  0  0
   54.9228   -7.3564   -5.2940 O   0  0  0  0  0  0  0  0  0  0  0  0
   54.7147   -5.3186   -4.0426 O   0  0  0  0  0  0  0  0  0  0  0  0
   52.5134   -6.4172   -4.9043 N   0  0  0  0  0  0  0  0  0  0  0  0
   52.4087   -7.3195   -4.4184 H   0  0  0  0  0  0  0  0  0  0  0  0
   51.6291   -5.4574   -4.3278 C   0  0  0  0  0  0  0  0  0  0  0  0
   51.2103   -5.7574   -2.9490 C   0  0  0  0  0  0  0  0  0  0  0  0
   51.5044   -7.1916   -2.5543 C   0  0  0  0  0  0  0  0  0  0  0  0
   52.0324   -4.9184   -1.9515 C   0  0  0  0  0  0  0  0  0  0  0  0
   49.8852   -5.5385   -2.6551 O   0  0  0  0  0  0  0  0  0  0  0  0
   49.6338   -5.8763   -1.7788 H   0  0  0  0  0  0  0  0  0  0  0  0
   50.4033   -6.2458   -6.4000 C   0  0  0  0  0  0  0  0  0  0  0  0
   50.5221   -5.1978   -5.3443 C   0  0  0  0  0  0  0  0  0  0  0  0
   50.3787   -3.7991   -5.8054 C   0  0  0  0  0  0  0  0  0  0  0  0
 32 33  1  0  0  0
 33 34  1  0  0  0
 33 26  1  0  0  0
 26 24  1  0  0  0
 24 21  1  0  0  0
 21 22  2  0  0  0
 21 23  2  0  0  0
 21  1  1  0  0  0
  1  2  2  0  0  0
  2  3  1  0  0  0
  3  4  2  0  0  0
  4  7  1  0  0  0
  7  8  1  0  0  0
  8  9  2  0  0  0
  8 11  1  0  0  0
 11 12  2  0  0  0
 12 13  1  0  0  0
 13 14  2  0  0  0
 14 15  1  0  0  0
 15 16  2  0  0  0
 14 17  1  0  0  0
 17 18  1  0  0  0
 17 19  1  0  0  0
 17 20  1  0  0  0
  4  5  1  0  0  0
  5  6  2  0  0  0
 26 27  1  0  0  0
 27 28  1  0  0  0
 27 29  1  0  0  0
 27 30  1  0  0  0
  6  1  1  0  0  0
 16 11  1  0  0  0
 24 25  1  0  0  0
  7 10  1  0  0  0
 30 31  1  0  0  0
M  END
> <minimizedAffinity>
-8.49952

> <CNNscore>
0.2618158460

> <CNNaffinity>
6.1480798721

> <CNN_VS>
1.6096646786

> <CNNaffinity_variance>
0.1858860105

$$$$
[H]OC(C([H])([H])[H])(C([H])([H])[H])[C@@]([H])(N([H])S(=O)(=O)c1c([H])c([H])c(N([H])C(=O)c2c([H])c([H])c(C(F)(F)F)c([H])c2[H])c([H])c1[H])C([H])(C([H])([H])[H])C([H])([H])[H]


 34 35  0  0  0  0  0  0  0  0999 V2000
   55.2569   -5.4366   -7.0153 C   0  0  0  0  0  0  0  0  0  0  0  0
   55.3705   -4.4944   -8.0079 C   0  0  0  0  0  0  0  0  0  0  0  0
   56.6058   -4.1730   -8.5935 C   0  0  0  0  0  0  0  0  0  0  0  0
   57.7027   -4.8180   -8.1633 C   0  0  0  0  0  0  0  0  0  0  0  0
   57.6194   -5.7652   -7.1575 C   0  0  0  0  0  0  0  0  0  0  0  0
   56.3910   -6.0695   -6.5866 C   0  0  0  0  0  0  0  0  0  0  0  0
   58.9441   -4.6946   -8.8901 N   0  0  0  0  0  0  0  0  0  0  0  0
   59.2934   -5.8083   -9.7138 C   0  0  0  0  0  0  0  0  0  0  0  0
   58.5173   -6.7929   -9.8220 O   0  0  0  0  0  0  0  0  0  0  0  0
   59.4932   -3.8573   -8.7948 H   0  0  0  0  0  0  0  0  0  0  0  0
   60.5706   -5.8607  -10.4516 C   0  0  0  0  0  0  0  0  0  0  0  0
   61.6434   -6.5519   -9.9532 C   0  0  0  0  0  0  0  0  0  0  0  0
   62.7754   -6.6806  -10.7380 C   0  0  0  0  0  0  0  0  0  0  0  0
   62.8278   -6.1206  -12.0001 C   0  0  0  0  0  0  0  0  0  0  0  0
   61.7544   -5.4268  -12.5002 C   0  0  0  0  0  0  0  0  0  0  0  0
   60.6106   -5.2942  -11.7145 C   0  0  0  0  0  0  0  0  0  0  0  0
   64.0232   -6.3027  -12.9055 C   0  0  0  0  0  0  0  0  0  0  0  0
   65.0895   -6.6441  -12.0815 F   0  0  0  0  0  0  0  0  0  0  0  0
   64.3433   -5.0635  -13.4631 F   0  0  0  0  0  0  0  0  0  0  0  0
   63.7879   -7.2355  -13.8516 F   0  0  0  0  0  0  0  0  0  0  0  0
   53.7103   -5.9455   -6.4549 S   0  0  0  0  0  0  0  0  0  0  0  0
   52.9919   -6.7324   -7.6047 O   0  0  0  0  0  0  0  0  0  0  0  0
   53.9725   -7.1086   -5.4462 O   0  0  0  0  0  0  0  0  0  0  0  0
   52.6306   -4.8982   -5.7759 N   0  0  0  0  0  0  0  0  0  0  0  0
   52.8829   -3.9065   -5.8942 H   0  0  0  0  0  0  0  0  0  0  0  0
   51.2240   -5.0589   -5.9528 C   0  0  0  0  0  0  0  0  0  0  0  0
   50.5788   -3.9993   -6.7450 C   0  0  0  0  0  0  0  0  0  0  0  0
   51.5853   -3.0961   -7.4311 C   0  0  0  0  0  0  0  0  0  0  0  0
   49.7790   -4.6195   -7.9071 C   0  0  0  0  0  0  0  0  0  0  0  0
   49.7161   -3.1723   -6.0654 O   0  0  0  0  0  0  0  0  0  0  0  0
   49.4235   -2.4142   -6.5991 H   0  0  0  0  0  0  0  0  0  0  0  0
   50.2163   -4.1384   -3.8185 C   0  0  0  0  0  0  0  0  0  0  0  0
   50.6285   -5.3538   -4.5801 C   0  0  0  0  0  0  0  0  0  0  0  0
   51.3026   -6.4099   -3.7929 C   0  0  0  0  0  0  0  0  0  0  0  0
 32 33  1  0  0  0
 33 34  1  0  0  0
 33 26  1  0  0  0
 26 24  1  0  0  0
 24 21  1  0  0  0
 21 22  2  0  0  0
 21 23  2  0  0  0
 21  1  1  0  0  0
  1  2  2  0  0  0
  2  3  1  0  0  0
  3  4  2  0  0  0
  4  7  1  0  0  0
  7  8  1  0  0  0
  8  9  2  0  0  0
  8 11  1  0  0  0
 11 12  2  0  0  0
 12 13  1  0  0  0
 13 14  2  0  0  0
 14 15  1  0  0  0
 15 16  2  0  0  0
 14 17  1  0  0  0
 17 18  1  0  0  0
 17 19  1  0  0  0
 17 20  1  0  0  0
  4  5  1  0  0  0
  5  6  2  0  0  0
 26 27  1  0  0  0
 27 28  1  0  0  0
 27 29  1  0  0  0
 27 30  1  0  0  0
  6  1  1  0  0  0
 16 11  1  0  0  0
 24 25  1  0  0  0
  7 10  1  0  0  0
 30 31  1  0  0  0
M  END
> <minimizedAffinity>
-2.64127

> <CNNscore>
0.2486920804

> <CNNaffinity>
5.6236219406

> <CNN_VS>
1.3985502720

> <CNNaffinity_variance>
0.3000915051

$$$$
[H]OC(C([H])([H])[H])(C([H])([H])[H])[C@@]([H])(N([H])S(=O)(=O)c1c([H])c([H])c(N([H])C(=O)c2c([H])c([H])c(C(F)(F)F)c([H])c2[H])c([H])c1[H])C([H])(C([H])([H])[H])C([H])([H])[H]


 34 35  0  0  0  0  0  0  0  0999 V2000
   60.3186   -6.1620   -9.5830 C   0  0  0  0  0  0  0  0  0  0  0  0
   60.0332   -5.9844   -8.2515 C   0  0  0  0  0  0  0  0  0  0  0  0
   58.7531   -5.6179   -7.8054 C   0  0  0  0  0  0  0  0  0  0  0  0
   57.7848   -5.4430   -8.7199 C   0  0  0  0  0  0  0  0  0  0  0  0
   58.0463   -5.6056  -10.0693 C   0  0  0  0  0  0  0  0  0  0  0  0
   59.3181   -5.9652  -10.4944 C   0  0  0  0  0  0  0  0  0  0  0  0
   56.4114   -5.2998   -8.2983 N   0  0  0  0  0  0  0  0  0  0  0  0
   55.6488   -4.3130   -8.9952 C   0  0  0  0  0  0  0  0  0  0  0  0
   56.1556   -3.6688   -9.9499 O   0  0  0  0  0  0  0  0  0  0  0  0
   56.0563   -5.8825   -7.5593 H   0  0  0  0  0  0  0  0  0  0  0  0
   54.2565   -3.9974   -8.6207 C   0  0  0  0  0  0  0  0  0  0  0  0
   53.5855   -4.7588   -7.7003 C   0  0  0  0  0  0  0  0  0  0  0  0
   52.3305   -4.3501   -7.2861 C   0  0  0  0  0  0  0  0  0  0  0  0
   51.7598   -3.1978   -7.7917 C   0  0  0  0  0  0  0  0  0  0  0  0
   52.4302   -2.4347   -8.7147 C   0  0  0  0  0  0  0  0  0  0  0  0
   53.6954   -2.8409   -9.1356 C   0  0  0  0  0  0  0  0  0  0  0  0
   50.4216   -2.6907   -7.3078 C   0  0  0  0  0  0  0  0  0  0  0  0
   50.4229   -1.3173   -7.5228 F   0  0  0  0  0  0  0  0  0  0  0  0
   50.3601   -2.8681   -5.9244 F   0  0  0  0  0  0  0  0  0  0  0  0
   49.4021   -3.3074   -7.9408 F   0  0  0  0  0  0  0  0  0  0  0  0
   61.8395   -6.7968  -10.0822 S   0  0  0  0  0  0  0  0  0  0  0  0
   61.5885   -7.9760  -11.0842 O   0  0  0  0  0  0  0  0  0  0  0  0
   62.4576   -5.7387  -11.0503 O   0  0  0  0  0  0  0  0  0  0  0  0
   62.9992   -7.2579   -9.0024 N   0  0  0  0  0  0  0  0  0  0  0  0
   63.9412   -7.3355   -9.4120 H   0  0  0  0  0  0  0  0  0  0  0  0
   63.0877   -6.6681   -7.7063 C   0  0  0  0  0  0  0  0  0  0  0  0
   64.1911   -5.7079   -7.5417 C   0  0  0  0  0  0  0  0  0  0  0  0
   64.7319   -5.6857   -6.1252 C   0  0  0  0  0  0  0  0  0  0  0  0
   65.3989   -6.1375   -8.3970 C   0  0  0  0  0  0  0  0  0  0  0  0
   63.9148   -4.4021   -7.8715 O   0  0  0  0  0  0  0  0  0  0  0  0
   64.6283   -3.7917   -7.6195 H   0  0  0  0  0  0  0  0  0  0  0  0
   63.4967   -9.1153   -7.1946 C   0  0  0  0  0  0  0  0  0  0  0  0
   63.0016   -7.8013   -6.6892 C   0  0  0  0  0  0  0  0  0  0  0  0
   61.7692   -7.8480   -5.8716 C   0  0  0  0  0  0  0  0  0  0  0  0
 32 33  1  0  0  0
 33 34  1  0  0  0
 33 26  1  0  0  0
 26 24  1  0  0  0
 24 21  1  0  0  0
 21 22  2  0  0  0
 21 23  2  0  0  0
 21  1  1  0  0  0
  1  2  2  0  0  0
  2  3  1  0  0  0
  3  4  2  0  0  0
  4  7  1  0  0  0
  7  8  1  0  0  0
  8  9  2  0  0  0
  8 11  1  0  0  0
 11 12  2  0  0  0
 12 13  1  0  0  0
 13 14  2  0  0  0
 14 15  1  0  0  0
 15 16  2  0  0  0
 14 17  1  0  0  0
 17 18  1  0  0  0
 17 19  1  0  0  0
 17 20  1  0  0  0
  4  5  1  0  0  0
  5  6  2  0  0  0
 26 27  1  0  0  0
 27 28  1  0  0  0
 27 29  1  0  0  0
 27 30  1  0  0  0
  6  1  1  0  0  0
 16 11  1  0  0  0
 24 25  1  0  0  0
  7 10  1  0  0  0
 30 31  1  0  0  0
M  END
> <minimizedAffinity>
-6.99864

> <CNNscore>
0.2212108970

> <CNNaffinity>
5.3722858429

> <CNN_VS>
1.1884081364

> <CNNaffinity_variance>
0.1349262297

$$$$
[H]OC(C([H])([H])[H])(C([H])([H])[H])[C@@]([H])(N([H])S(=O)(=O)c1c([H])c([H])c(N([H])C(=O)c2c([H])c([H])c(C(F)(F)F)c([H])c2[H])c([H])c1[H])C([H])(C([H])([H])[H])C([H])([H])[H]


 34 35  0  0  0  0  0  0  0  0999 V2000
   59.6833   -6.0131   -9.4199 C   0  0  0  0  0  0  0  0  0  0  0  0
   59.1094   -5.6672   -8.2212 C   0  0  0  0  0  0  0  0  0  0  0  0
   57.8684   -5.0139   -8.1492 C   0  0  0  0  0  0  0  0  0  0  0  0
   57.2307   -4.7278   -9.2964 C   0  0  0  0  0  0  0  0  0  0  0  0
   57.7900   -5.0559  -10.5192 C   0  0  0  0  0  0  0  0  0  0  0  0
   59.0191   -5.6990  -10.5735 C   0  0  0  0  0  0  0  0  0  0  0  0
   55.8598   -4.2758   -9.2666 N   0  0  0  0  0  0  0  0  0  0  0  0
   55.1835   -4.4297   -8.0177 C   0  0  0  0  0  0  0  0  0  0  0  0
   55.7911   -4.8794   -7.0118 O   0  0  0  0  0  0  0  0  0  0  0  0
   55.4500   -3.8804  -10.0958 H   0  0  0  0  0  0  0  0  0  0  0  0
   53.7565   -4.0883   -7.8579 C   0  0  0  0  0  0  0  0  0  0  0  0
   52.9700   -4.7557   -6.9562 C   0  0  0  0  0  0  0  0  0  0  0  0
   51.6746   -4.3165   -6.7494 C   0  0  0  0  0  0  0  0  0  0  0  0
   51.1788   -3.2274   -7.4402 C   0  0  0  0  0  0  0  0  0  0  0  0
   51.9650   -2.5586   -8.3447 C   0  0  0  0  0  0  0  0  0  0  0  0
   53.2714   -2.9959   -8.5571 C   0  0  0  0  0  0  0  0  0  0  0  0
   49.7926   -2.6837   -7.1854 C   0  0  0  0  0  0  0  0  0  0  0  0
   49.8526   -1.3203   -7.4499 F   0  0  0  0  0  0  0  0  0  0  0  0
   49.5186   -2.8040   -5.8218 F   0  0  0  0  0  0  0  0  0  0  0  0
   48.8693   -3.3122   -7.9424 F   0  0  0  0  0  0  0  0  0  0  0  0
   61.1065   -6.9812   -9.4699 S   0  0  0  0  0  0  0  0  0  0  0  0
   61.5504   -7.1471  -10.9641 O   0  0  0  0  0  0  0  0  0  0  0  0
   62.2656   -6.0811   -8.9358 O   0  0  0  0  0  0  0  0  0  0  0  0
   61.1994   -8.4505   -8.7242 N   0  0  0  0  0  0  0  0  0  0  0  0
   60.4176   -9.0818   -8.9509 H   0  0  0  0  0  0  0  0  0  0  0  0
   62.4180   -9.1916   -8.6866 C   0  0  0  0  0  0  0  0  0  0  0  0
   62.4507  -10.3666   -9.5726 C   0  0  0  0  0  0  0  0  0  0  0  0
   63.8313  -10.6204  -10.1459 C   0  0  0  0  0  0  0  0  0  0  0  0
   62.1380  -11.6441   -8.7695 C   0  0  0  0  0  0  0  0  0  0  0  0
   61.5852  -10.3467  -10.6406 O   0  0  0  0  0  0  0  0  0  0  0  0
   61.7402  -11.0768  -11.2636 H   0  0  0  0  0  0  0  0  0  0  0  0
   61.6957   -8.9836   -6.2673 C   0  0  0  0  0  0  0  0  0  0  0  0
   62.7579   -9.4248   -7.2182 C   0  0  0  0  0  0  0  0  0  0  0  0
   64.1492   -9.1201   -6.8172 C   0  0  0  0  0  0  0  0  0  0  0  0
 32 33  1  0  0  0
 33 34  1  0  0  0
 33 26  1  0  0  0
 26 24  1  0  0  0
 24 21  1  0  0  0
 21 22  2  0  0  0
 21 23  2  0  0  0
 21  1  1  0  0  0
  1  2  2  0  0  0
  2  3  1  0  0  0
  3  4  2  0  0  0
  4  7  1  0  0  0
  7  8  1  0  0  0
  8  9  2  0  0  0
  8 11  1  0  0  0
 11 12  2  0  0  0
 12 13  1  0  0  0
 13 14  2  0  0  0
 14 15  1  0  0  0
 15 16  2  0  0  0
 14 17  1  0  0  0
 17 18  1  0  0  0
 17 19  1  0  0  0
 17 20  1  0  0  0
  4  5  1  0  0  0
  5  6  2  0  0  0
 26 27  1  0  0  0
 27 28  1  0  0  0
 27 29  1  0  0  0
 27 30  1  0  0  0
  6  1  1  0  0  0
 16 11  1  0  0  0
 24 25  1  0  0  0
  7 10  1  0  0  0
 30 31  1  0  0  0
M  END
> <minimizedAffinity>
-8.60023

> <CNNscore>
0.2042344809

> <CNNaffinity>
5.3660554886

> <CNN_VS>
1.0959335566

> <CNNaffinity_variance>
0.1094270945

$$$$
[H]c1nc(N([H])C(=O)c2c([H])c([H])c([H])c(C(F)(F)F)c2[H])c([H])c(-c2c([H])c([H])c([H])c([H])c2[H])c1[H]


 26 28  0  0  0  0  0  0  0  0999 V2000
   56.0047   -4.1431  -10.4996 C   0  0  0  0  0  0  0  0  0  0  0  0
   56.3141   -4.8871   -9.5474 O   0  0  0  0  0  0  0  0  0  0  0  0
   54.7589   -3.4359  -10.4694 N   0  0  0  0  0  0  0  0  0  0  0  0
   54.4441   -2.8196  -11.2111 H   0  0  0  0  0  0  0  0  0  0  0  0
   57.1908   -3.7147  -14.0060 C   0  0  0  0  0  0  0  0  0  0  0  0
   58.5694   -3.7148  -13.8715 C   0  0  0  0  0  0  0  0  0  0  0  0
   59.0672   -3.8986  -12.5869 C   0  0  0  0  0  0  0  0  0  0  0  0
   58.2663   -4.0608  -11.4966 C   0  0  0  0  0  0  0  0  0  0  0  0
   56.9110   -4.0499  -11.6361 C   0  0  0  0  0  0  0  0  0  0  0  0
   56.3780   -3.8772  -12.9180 C   0  0  0  0  0  0  0  0  0  0  0  0
   55.3537   -2.8604  -15.1925 F   0  0  0  0  0  0  0  0  0  0  0  0
   56.5136   -3.5594  -15.3380 C   0  0  0  0  0  0  0  0  0  0  0  0
   57.3558   -3.0423  -16.2587 F   0  0  0  0  0  0  0  0  0  0  0  0
   56.1348   -4.8446  -15.8019 F   0  0  0  0  0  0  0  0  0  0  0  0
   53.8743   -3.6797   -9.3876 C   0  0  0  0  0  0  0  0  0  0  0  0
   54.2178   -4.5234   -8.2908 C   0  0  0  0  0  0  0  0  0  0  0  0
   53.4107   -4.6658   -7.2325 C   0  0  0  0  0  0  0  0  0  0  0  0
   52.1826   -3.9275   -7.2513 C   0  0  0  0  0  0  0  0  0  0  0  0
   51.8800   -3.1423   -8.3193 C   0  0  0  0  0  0  0  0  0  0  0  0
   52.7180   -3.0334   -9.3555 N   0  0  0  0  0  0  0  0  0  0  0  0
   53.6028   -5.5646   -6.1271 C   0  0  0  0  0  0  0  0  0  0  0  0
   54.6434   -6.4091   -5.8939 C   0  0  0  0  0  0  0  0  0  0  0  0
   54.7965   -7.1966   -4.7613 C   0  0  0  0  0  0  0  0  0  0  0  0
   53.8265   -7.1198   -3.7807 C   0  0  0  0  0  0  0  0  0  0  0  0
   52.7826   -6.2871   -3.9518 C   0  0  0  0  0  0  0  0  0  0  0  0
   52.6237   -5.4972   -5.1110 C   0  0  0  0  0  0  0  0  0  0  0  0
 11 12  1  0  0  0
 12 13  1  0  0  0
 12 14  1  0  0  0
 12  5  1  0  0  0
  5  6  2  0  0  0
  6  7  1  0  0  0
  7  8  2  0  0  0
  8  9  1  0  0  0
  9 10  2  0  0  0
  9  1  1  0  0  0
  1  2  2  0  0  0
  1  3  1  0  0  0
  3 15  1  0  0  0
 15 16  2  0  0  0
 16 17  1  0  0  0
 17 18  2  0  0  0
 18 19  1  0  0  0
 19 20  2  0  0  0
 17 21  1  0  0  0
 21 22  2  0  0  0
 22 23  1  0  0  0
 23 24  2  0  0  0
 24 25  1  0  0  0
 25 26  2  0  0  0
 10  5  1  0  0  0
 20 15  1  0  0  0
 26 21  1  0  0  0
  3  4  1  0  0  0
M  END
> <minimizedAffinity>
-8.90482

> <CNNscore>
0.6888502240

> <CNNaffinity>
6.0981531143

> <CNN_VS>
4.2007141113

> <CNNaffinity_variance>
0.2804599106

$$$$
[H]c1nc(N([H])C(=O)c2c([H])c([H])c([H])c(C(F)(F)F)c2[H])c([H])c(-c2c([H])c([H])c([H])c([H])c2[H])c1[H]


 26 28  0  0  0  0  0  0  0  0999 V2000
   54.8894   -3.6923   -9.1041 C   0  0  0  0  0  0  0  0  0  0  0  0
   55.1142   -3.1901   -7.9846 O   0  0  0  0  0  0  0  0  0  0  0  0
   53.5377   -3.8349   -9.5573 N   0  0  0  0  0  0  0  0  0  0  0  0
   53.2846   -4.2385  -10.4530 H   0  0  0  0  0  0  0  0  0  0  0  0
   57.0500   -4.3399  -12.0701 C   0  0  0  0  0  0  0  0  0  0  0  0
   58.1955   -4.8809  -11.5099 C   0  0  0  0  0  0  0  0  0  0  0  0
   58.1918   -5.0479  -10.1301 C   0  0  0  0  0  0  0  0  0  0  0  0
   57.1367   -4.6964   -9.3427 C   0  0  0  0  0  0  0  0  0  0  0  0
   56.0173   -4.1560   -9.9006 C   0  0  0  0  0  0  0  0  0  0  0  0
   55.9853   -3.9843  -11.2887 C   0  0  0  0  0  0  0  0  0  0  0  0
   58.0577   -3.6380  -14.0712 F   0  0  0  0  0  0  0  0  0  0  0  0
   56.9005   -4.1328  -13.5506 C   0  0  0  0  0  0  0  0  0  0  0  0
   56.4581   -5.2541  -14.1601 F   0  0  0  0  0  0  0  0  0  0  0  0
   55.9200   -3.1318  -13.7675 F   0  0  0  0  0  0  0  0  0  0  0  0
   52.4904   -3.4777   -8.6697 C   0  0  0  0  0  0  0  0  0  0  0  0
   52.2356   -4.1864   -7.4590 C   0  0  0  0  0  0  0  0  0  0  0  0
   51.3066   -3.7779   -6.5863 C   0  0  0  0  0  0  0  0  0  0  0  0
   50.5788   -2.5905   -6.9244 C   0  0  0  0  0  0  0  0  0  0  0  0
   50.8380   -1.9464   -8.0935 C   0  0  0  0  0  0  0  0  0  0  0  0
   51.7752   -2.3945   -8.9354 N   0  0  0  0  0  0  0  0  0  0  0  0
   50.8927   -4.4673   -5.3947 C   0  0  0  0  0  0  0  0  0  0  0  0
   51.5350   -5.4630   -4.7266 C   0  0  0  0  0  0  0  0  0  0  0  0
   51.1079   -6.0321   -3.5349 C   0  0  0  0  0  0  0  0  0  0  0  0
   49.9439   -5.5525   -2.9664 C   0  0  0  0  0  0  0  0  0  0  0  0
   49.2761   -4.5553   -3.5765 C   0  0  0  0  0  0  0  0  0  0  0  0
   49.7067   -3.9877   -4.7953 C   0  0  0  0  0  0  0  0  0  0  0  0
 11 12  1  0  0  0
 12 13  1  0  0  0
 12 14  1  0  0  0
 12  5  1  0  0  0
  5  6  2  0  0  0
  6  7  1  0  0  0
  7  8  2  0  0  0
  8  9  1  0  0  0
  9 10  2  0  0  0
  9  1  1  0  0  0
  1  2  2  0  0  0
  1  3  1  0  0  0
  3 15  1  0  0  0
 15 16  2  0  0  0
 16 17  1  0  0  0
 17 18  2  0  0  0
 18 19  1  0  0  0
 19 20  2  0  0  0
 17 21  1  0  0  0
 21 22  2  0  0  0
 22 23  1  0  0  0
 23 24  2  0  0  0
 24 25  1  0  0  0
 25 26  2  0  0  0
 10  5  1  0  0  0
 20 15  1  0  0  0
 26 21  1  0  0  0
  3  4  1  0  0  0
M  END
> <minimizedAffinity>
-10.57071

> <CNNscore>
0.6856667399

> <CNNaffinity>
6.2669801712

> <CNN_VS>
4.2970600128

> <CNNaffinity_variance>
0.0683407038

$$$$
[H]c1nc(N([H])C(=O)c2c([H])c([H])c([H])c(C(F)(F)F)c2[H])c([H])c(-c2c([H])c([H])c([H])c([H])c2[H])c1[H]


 26 28  0  0  0  0  0  0  0  0999 V2000
   53.2969   -3.4725   -8.7471 C   0  0  0  0  0  0  0  0  0  0  0  0
   53.2698   -2.9048   -9.8575 O   0  0  0  0  0  0  0  0  0  0  0  0
   54.4661   -4.2008   -8.3530 N   0  0  0  0  0  0  0  0  0  0  0  0
   54.5528   -4.6887   -7.4678 H   0  0  0  0  0  0  0  0  0  0  0  0
   50.8696   -4.3232   -6.0509 C   0  0  0  0  0  0  0  0  0  0  0  0
   49.9473   -3.2924   -6.1244 C   0  0  0  0  0  0  0  0  0  0  0  0
   50.1539   -2.3452   -7.1203 C   0  0  0  0  0  0  0  0  0  0  0  0
   51.2053   -2.3950   -7.9855 C   0  0  0  0  0  0  0  0  0  0  0  0
   52.1134   -3.4071   -7.9004 C   0  0  0  0  0  0  0  0  0  0  0  0
   51.9282   -4.3827   -6.9149 C   0  0  0  0  0  0  0  0  0  0  0  0
   51.8845   -5.4967   -4.2887 F   0  0  0  0  0  0  0  0  0  0  0  0
   50.7543   -5.4342   -5.0463 C   0  0  0  0  0  0  0  0  0  0  0  0
   49.6154   -5.3290   -4.3277 F   0  0  0  0  0  0  0  0  0  0  0  0
   50.6884   -6.6664   -5.7446 F   0  0  0  0  0  0  0  0  0  0  0  0
   55.5266   -4.3250   -9.2868 C   0  0  0  0  0  0  0  0  0  0  0  0
   56.7855   -4.9010   -8.9458 C   0  0  0  0  0  0  0  0  0  0  0  0
   57.7406   -5.0989   -9.8625 C   0  0  0  0  0  0  0  0  0  0  0  0
   57.4383   -4.7060  -11.2071 C   0  0  0  0  0  0  0  0  0  0  0  0
   56.2327   -4.1473  -11.4953 C   0  0  0  0  0  0  0  0  0  0  0  0
   55.3102   -3.9676  -10.5441 N   0  0  0  0  0  0  0  0  0  0  0  0
   59.0765   -5.5691   -9.6157 C   0  0  0  0  0  0  0  0  0  0  0  0
   59.6173   -6.0070   -8.4470 C   0  0  0  0  0  0  0  0  0  0  0  0
   60.8993   -6.5184   -8.3004 C   0  0  0  0  0  0  0  0  0  0  0  0
   61.6973   -6.6033   -9.4249 C   0  0  0  0  0  0  0  0  0  0  0  0
   61.2066   -6.1995  -10.6118 C   0  0  0  0  0  0  0  0  0  0  0  0
   59.9066   -5.6680  -10.7546 C   0  0  0  0  0  0  0  0  0  0  0  0
 11 12  1  0  0  0
 12 13  1  0  0  0
 12 14  1  0  0  0
 12  5  1  0  0  0
  5  6  2  0  0  0
  6  7  1  0  0  0
  7  8  2  0  0  0
  8  9  1  0  0  0
  9 10  2  0  0  0
  9  1  1  0  0  0
  1  2  2  0  0  0
  1  3  1  0  0  0
  3 15  1  0  0  0
 15 16  2  0  0  0
 16 17  1  0  0  0
 17 18  2  0  0  0
 18 19  1  0  0  0
 19 20  2  0  0  0
 17 21  1  0  0  0
 21 22  2  0  0  0
 22 23  1  0  0  0
 23 24  2  0  0  0
 24 25  1  0  0  0
 25 26  2  0  0  0
 10  5  1  0  0  0
 20 15  1  0  0  0
 26 21  1  0  0  0
  3  4  1  0  0  0
M  END
> <minimizedAffinity>
-9.63196

> <CNNscore>
0.6738316417

> <CNNaffinity>
6.1104664803

> <CNN_VS>
4.1174254417

> <CNNaffinity_variance>
0.2071655989

$$$$
[H]c1nc(N([H])C(=O)c2c([H])c([H])c([H])c(C(F)(F)F)c2[H])c([H])c(-c2c([H])c([H])c([H])c([H])c2[H])c1[H]


 26 28  0  0  0  0  0  0  0  0999 V2000
   54.8262   -3.6466   -9.1093 C   0  0  0  0  0  0  0  0  0  0  0  0
   55.0495   -3.0138   -8.0578 O   0  0  0  0  0  0  0  0  0  0  0  0
   53.4742   -3.9167   -9.4992 N   0  0  0  0  0  0  0  0  0  0  0  0
   53.2226   -4.4290  -10.3379 H   0  0  0  0  0  0  0  0  0  0  0  0
   57.0340   -4.3008  -12.0390 C   0  0  0  0  0  0  0  0  0  0  0  0
   58.1522   -4.8817  -11.4638 C   0  0  0  0  0  0  0  0  0  0  0  0
   58.1136   -5.0720  -10.0876 C   0  0  0  0  0  0  0  0  0  0  0  0
   57.0511   -4.7060   -9.3171 C   0  0  0  0  0  0  0  0  0  0  0  0
   55.9589   -4.1265   -9.8894 C   0  0  0  0  0  0  0  0  0  0  0  0
   55.9620   -3.9303  -11.2746 C   0  0  0  0  0  0  0  0  0  0  0  0
   55.9262   -3.1719  -13.7742 F   0  0  0  0  0  0  0  0  0  0  0  0
   56.9226   -4.0646  -13.5184 C   0  0  0  0  0  0  0  0  0  0  0  0
   58.1161   -3.7248  -14.0518 F   0  0  0  0  0  0  0  0  0  0  0  0
   56.5244   -5.2762  -14.1381 F   0  0  0  0  0  0  0  0  0  0  0  0
   52.4312   -3.5278   -8.6201 C   0  0  0  0  0  0  0  0  0  0  0  0
   52.1940   -4.1805   -7.3748 C   0  0  0  0  0  0  0  0  0  0  0  0
   51.2686   -3.7399   -6.5140 C   0  0  0  0  0  0  0  0  0  0  0  0
   50.5259   -2.5771   -6.9015 C   0  0  0  0  0  0  0  0  0  0  0  0
   50.7683   -1.9870   -8.1022 C   0  0  0  0  0  0  0  0  0  0  0  0
   51.7027   -2.4655   -8.9304 N   0  0  0  0  0  0  0  0  0  0  0  0
   50.8721   -4.3758   -5.2872 C   0  0  0  0  0  0  0  0  0  0  0  0
   49.7537   -4.1583   -4.5442 C   0  0  0  0  0  0  0  0  0  0  0  0
   49.4000   -4.8669   -3.4042 C   0  0  0  0  0  0  0  0  0  0  0  0
   50.2372   -5.8825   -2.9848 C   0  0  0  0  0  0  0  0  0  0  0  0
   51.3501   -6.1524   -3.6927 C   0  0  0  0  0  0  0  0  0  0  0  0
   51.7131   -5.4211   -4.8444 C   0  0  0  0  0  0  0  0  0  0  0  0
 11 12  1  0  0  0
 12 13  1  0  0  0
 12 14  1  0  0  0
 12  5  1  0  0  0
  5  6  2  0  0  0
  6  7  1  0  0  0
  7  8  2  0  0  0
  8  9  1  0  0  0
  9 10  2  0  0  0
  9  1  1  0  0  0
  1  2  2  0  0  0
  1  3  1  0  0  0
  3 15  1  0  0  0
 15 16  2  0  0  0
 16 17  1  0  0  0
 17 18  2  0  0  0
 18 19  1  0  0  0
 19 20  2  0  0  0
 17 21  1  0  0  0
 21 22  2  0  0  0
 22 23  1  0  0  0
 23 24  2  0  0  0
 24 25  1  0  0  0
 25 26  2  0  0  0
 10  5  1  0  0  0
 20 15  1  0  0  0
 26 21  1  0  0  0
  3  4  1  0  0  0
M  END
> <minimizedAffinity>
-10.21693

> <CNNscore>
0.6047667265

> <CNNaffinity>
6.2074885368

> <CNN_VS>
3.7540824413

> <CNNaffinity_variance>
0.0852085575

$$$$
[H]c1nc(N([H])C(=O)c2c([H])c([H])c([H])c(C(F)(F)F)c2[H])c([H])c(-c2c([H])c([H])c([H])c([H])c2[H])c1[H]


 26 28  0  0  0  0  0  0  0  0999 V2000
   55.0156   -3.6981   -9.2098 C   0  0  0  0  0  0  0  0  0  0  0  0
   55.2580   -3.3621   -8.0332 O   0  0  0  0  0  0  0  0  0  0  0  0
   53.6579   -3.7558   -9.6639 N   0  0  0  0  0  0  0  0  0  0  0  0
   53.3907   -4.0253  -10.6047 H   0  0  0  0  0  0  0  0  0  0  0  0
   58.2752   -5.1327  -10.3060 C   0  0  0  0  0  0  0  0  0  0  0  0
   58.2599   -4.9315  -11.6763 C   0  0  0  0  0  0  0  0  0  0  0  0
   57.1498   -4.2751  -12.1944 C   0  0  0  0  0  0  0  0  0  0  0  0
   56.1107   -3.8509  -11.4218 C   0  0  0  0  0  0  0  0  0  0  0  0
   56.1291   -4.0612  -10.0758 C   0  0  0  0  0  0  0  0  0  0  0  0
   57.2375   -4.7103   -9.5215 C   0  0  0  0  0  0  0  0  0  0  0  0
   59.6251   -5.2220   -8.3870 F   0  0  0  0  0  0  0  0  0  0  0  0
   59.4248   -5.7986   -9.6046 C   0  0  0  0  0  0  0  0  0  0  0  0
   59.2612   -7.1385   -9.5586 F   0  0  0  0  0  0  0  0  0  0  0  0
   60.6073   -5.5532  -10.3475 F   0  0  0  0  0  0  0  0  0  0  0  0
   52.6241   -3.5122   -8.7237 C   0  0  0  0  0  0  0  0  0  0  0  0
   52.4746   -4.2802   -7.5317 C   0  0  0  0  0  0  0  0  0  0  0  0
   51.5541   -3.9757   -6.6089 C   0  0  0  0  0  0  0  0  0  0  0  0
   50.7244   -2.8375   -6.8735 C   0  0  0  0  0  0  0  0  0  0  0  0
   50.8849   -2.1350   -8.0265 C   0  0  0  0  0  0  0  0  0  0  0  0
   51.8179   -2.4793   -8.9203 N   0  0  0  0  0  0  0  0  0  0  0  0
   51.2438   -4.7362   -5.4291 C   0  0  0  0  0  0  0  0  0  0  0  0
   51.9322   -5.7769   -4.8877 C   0  0  0  0  0  0  0  0  0  0  0  0
   51.6104   -6.4173   -3.6990 C   0  0  0  0  0  0  0  0  0  0  0  0
   50.5109   -5.9659   -2.9949 C   0  0  0  0  0  0  0  0  0  0  0  0
   49.8026   -4.9271   -3.4763 C   0  0  0  0  0  0  0  0  0  0  0  0
   50.1254   -4.2866   -4.6922 C   0  0  0  0  0  0  0  0  0  0  0  0
 11 12  1  0  0  0
 12 13  1  0  0  0
 12 14  1  0  0  0
 12  5  1  0  0  0
  5  6  2  0  0  0
  6  7  1  0  0  0
  7  8  2  0  0  0
  8  9  1  0  0  0
  9 10  2  0  0  0
  9  1  1  0  0  0
  1  2  2  0  0  0
  1  3  1  0  0  0
  3 15  1  0  0  0
 15 16  2  0  0  0
 16 17  1  0  0  0
 17 18  2  0  0  0
 18 19  1  0  0  0
 19 20  2  0  0  0
 17 21  1  0  0  0
 21 22  2  0  0  0
 22 23  1  0  0  0
 23 24  2  0  0  0
 24 25  1  0  0  0
 25 26  2  0  0  0
 10  5  1  0  0  0
 20 15  1  0  0  0
 26 21  1  0  0  0
  3  4  1  0  0  0
M  END
> <minimizedAffinity>
-9.92572

> <CNNscore>
0.6030544043

> <CNNaffinity>
6.1475372314

> <CNN_VS>
3.7072994709

> <CNNaffinity_variance>
0.1623003632

$$$$
[H]c1nc(N([H])C(=O)c2c([H])c([H])c([H])c(C(F)(F)F)c2[H])c([H])c(-c2c([H])c([H])c([H])c([H])c2[H])c1[H]


 26 28  0  0  0  0  0  0  0  0999 V2000
   54.9037   -3.5068   -8.8877 C   0  0  0  0  0  0  0  0  0  0  0  0
   55.0156   -2.5077   -8.1493 O   0  0  0  0  0  0  0  0  0  0  0  0
   53.6033   -4.0428   -9.1610 N   0  0  0  0  0  0  0  0  0  0  0  0
   53.4416   -4.8543   -9.7478 H   0  0  0  0  0  0  0  0  0  0  0  0
   57.6097   -4.4114  -11.2844 C   0  0  0  0  0  0  0  0  0  0  0  0
   58.4900   -5.1396  -10.5011 C   0  0  0  0  0  0  0  0  0  0  0  0
   58.1221   -5.3384   -9.1757 C   0  0  0  0  0  0  0  0  0  0  0  0
   56.9687   -4.8454   -8.6435 C   0  0  0  0  0  0  0  0  0  0  0  0
   56.1127   -4.1220   -9.4183 C   0  0  0  0  0  0  0  0  0  0  0  0
   56.4491   -3.9126  -10.7600 C   0  0  0  0  0  0  0  0  0  0  0  0
   57.2491   -2.9893  -13.1174 F   0  0  0  0  0  0  0  0  0  0  0  0
   57.8614   -4.1464  -12.7416 C   0  0  0  0  0  0  0  0  0  0  0  0
   59.1810   -4.1884  -13.0266 F   0  0  0  0  0  0  0  0  0  0  0  0
   57.2436   -5.1740  -13.4984 F   0  0  0  0  0  0  0  0  0  0  0  0
   52.4870   -3.4652   -8.5034 C   0  0  0  0  0  0  0  0  0  0  0  0
   51.9160   -4.0274   -7.3240 C   0  0  0  0  0  0  0  0  0  0  0  0
   50.9253   -3.4177   -6.6620 C   0  0  0  0  0  0  0  0  0  0  0  0
   50.4646   -2.1689   -7.1931 C   0  0  0  0  0  0  0  0  0  0  0  0
   51.0223   -1.6677   -8.3274 C   0  0  0  0  0  0  0  0  0  0  0  0
   52.0094   -2.3150   -8.9555 N   0  0  0  0  0  0  0  0  0  0  0  0
   50.2062   -3.9392   -5.5318 C   0  0  0  0  0  0  0  0  0  0  0  0
   50.5420   -4.9787   -4.7212 C   0  0  0  0  0  0  0  0  0  0  0  0
   49.8316   -5.3798   -3.5983 C   0  0  0  0  0  0  0  0  0  0  0  0
   48.6957   -4.6699   -3.2604 C   0  0  0  0  0  0  0  0  0  0  0  0
   48.3259   -3.6205   -4.0184 C   0  0  0  0  0  0  0  0  0  0  0  0
   49.0440   -3.2234   -5.1672 C   0  0  0  0  0  0  0  0  0  0  0  0
 11 12  1  0  0  0
 12 13  1  0  0  0
 12 14  1  0  0  0
 12  5  1  0  0  0
  5  6  2  0  0  0
  6  7  1  0  0  0
  7  8  2  0  0  0
  8  9  1  0  0  0
  9 10  2  0  0  0
  9  1  1  0  0  0
  1  2  2  0  0  0
  1  3  1  0  0  0
  3 15  1  0  0  0
 15 16  2  0  0  0
 16 17  1  0  0  0
 17 18  2  0  0  0
 18 19  1  0  0  0
 19 20  2  0  0  0
 17 21  1  0  0  0
 21 22  2  0  0  0
 22 23  1  0  0  0
 23 24  2  0  0  0
 24 25  1  0  0  0
 25 26  2  0  0  0
 10  5  1  0  0  0
 20 15  1  0  0  0
 26 21  1  0  0  0
  3  4  1  0  0  0
M  END
> <minimizedAffinity>
-9.95024

> <CNNscore>
0.4758026600

> <CNNaffinity>
6.0996031761

> <CNN_VS>
2.9022073746

> <CNNaffinity_variance>
0.2000180781

$$$$
[H]c1nc(N([H])C(=O)c2c([H])c([H])c([H])c(C(F)(F)F)c2[H])c([H])c(-c2c([H])c([H])c([H])c([H])c2[H])c1[H]


 26 28  0  0  0  0  0  0  0  0999 V2000
   56.6284   -4.1430  -11.0893 C   0  0  0  0  0  0  0  0  0  0  0  0
   57.2475   -4.9710  -10.3914 O   0  0  0  0  0  0  0  0  0  0  0  0
   55.4385   -3.5328  -10.5749 N   0  0  0  0  0  0  0  0  0  0  0  0
   54.8853   -2.8565  -11.0905 H   0  0  0  0  0  0  0  0  0  0  0  0
   59.0104   -3.5544  -13.8938 C   0  0  0  0  0  0  0  0  0  0  0  0
   58.1761   -3.4427  -14.9938 C   0  0  0  0  0  0  0  0  0  0  0  0
   56.8111   -3.5343  -14.7489 C   0  0  0  0  0  0  0  0  0  0  0  0
   56.2919   -3.7349  -13.5051 C   0  0  0  0  0  0  0  0  0  0  0  0
   57.1199   -3.8533  -12.4296 C   0  0  0  0  0  0  0  0  0  0  0  0
   58.4993   -3.7554  -12.6411 C   0  0  0  0  0  0  0  0  0  0  0  0
   60.8951   -3.6674  -15.2893 F   0  0  0  0  0  0  0  0  0  0  0  0
   60.5044   -3.4425  -14.0040 C   0  0  0  0  0  0  0  0  0  0  0  0
   60.9476   -2.2744  -13.4906 F   0  0  0  0  0  0  0  0  0  0  0  0
   61.0906   -4.4794  -13.2348 F   0  0  0  0  0  0  0  0  0  0  0  0
   54.9542   -3.9636   -9.3132 C   0  0  0  0  0  0  0  0  0  0  0  0
   53.6234   -3.7034   -8.8726 C   0  0  0  0  0  0  0  0  0  0  0  0
   53.1530   -4.1998   -7.7220 C   0  0  0  0  0  0  0  0  0  0  0  0
   54.0503   -5.0092   -6.9516 C   0  0  0  0  0  0  0  0  0  0  0  0
   55.3173   -5.2265   -7.3946 C   0  0  0  0  0  0  0  0  0  0  0  0
   55.7428   -4.7070   -8.5509 N   0  0  0  0  0  0  0  0  0  0  0  0
   51.8737   -3.9176   -7.1301 C   0  0  0  0  0  0  0  0  0  0  0  0
   51.2653   -4.5475   -6.0893 C   0  0  0  0  0  0  0  0  0  0  0  0
   50.0562   -4.1699   -5.5216 C   0  0  0  0  0  0  0  0  0  0  0  0
   49.4132   -3.0624   -6.0396 C   0  0  0  0  0  0  0  0  0  0  0  0
   49.9791   -2.3904   -7.0598 C   0  0  0  0  0  0  0  0  0  0  0  0
   51.2027   -2.7851   -7.6429 C   0  0  0  0  0  0  0  0  0  0  0  0
 11 12  1  0  0  0
 12 13  1  0  0  0
 12 14  1  0  0  0
 12  5  1  0  0  0
  5  6  2  0  0  0
  6  7  1  0  0  0
  7  8  2  0  0  0
  8  9  1  0  0  0
  9 10  2  0  0  0
  9  1  1  0  0  0
  1  2  2  0  0  0
  1  3  1  0  0  0
  3 15  1  0  0  0
 15 16  2  0  0  0
 16 17  1  0  0  0
 17 18  2  0  0  0
 18 19  1  0  0  0
 19 20  2  0  0  0
 17 21  1  0  0  0
 21 22  2  0  0  0
 22 23  1  0  0  0
 23 24  2  0  0  0
 24 25  1  0  0  0
 25 26  2  0  0  0
 10  5  1  0  0  0
 20 15  1  0  0  0
 26 21  1  0  0  0
  3  4  1  0  0  0
M  END
> <minimizedAffinity>
-10.12581

> <CNNscore>
0.4673857391

> <CNNaffinity>
5.8427281380

> <CNN_VS>
2.7308077812

> <CNNaffinity_variance>
0.2139004916

$$$$
[H]c1nc(N([H])C(=O)c2c([H])c([H])c([H])c(C(F)(F)F)c2[H])c([H])c(-c2c([H])c([H])c([H])c([H])c2[H])c1[H]


 26 28  0  0  0  0  0  0  0  0999 V2000
   53.9463   -4.3802   -8.3654 C   0  0  0  0  0  0  0  0  0  0  0  0
   53.6714   -4.2474   -9.5748 O   0  0  0  0  0  0  0  0  0  0  0  0
   55.3157   -4.4924   -7.9591 N   0  0  0  0  0  0  0  0  0  0  0  0
   55.6084   -4.6069   -6.9945 H   0  0  0  0  0  0  0  0  0  0  0  0
   50.7354   -3.5950   -6.6453 C   0  0  0  0  0  0  0  0  0  0  0  0
   50.6336   -4.6018   -5.6994 C   0  0  0  0  0  0  0  0  0  0  0  0
   51.6847   -5.5094   -5.6440 C   0  0  0  0  0  0  0  0  0  0  0  0
   52.7656   -5.4447   -6.4711 C   0  0  0  0  0  0  0  0  0  0  0  0
   52.8537   -4.4568   -7.4052 C   0  0  0  0  0  0  0  0  0  0  0  0
   51.8165   -3.5209   -7.4798 C   0  0  0  0  0  0  0  0  0  0  0  0
   48.7164   -2.9443   -7.6515 F   0  0  0  0  0  0  0  0  0  0  0  0
   49.6907   -2.5261   -6.7965 C   0  0  0  0  0  0  0  0  0  0  0  0
   49.2296   -2.1178   -5.5944 F   0  0  0  0  0  0  0  0  0  0  0  0
   50.2881   -1.3979   -7.4134 F   0  0  0  0  0  0  0  0  0  0  0  0
   56.3136   -4.5380   -8.9662 C   0  0  0  0  0  0  0  0  0  0  0  0
   57.5483   -5.2295   -8.7921 C   0  0  0  0  0  0  0  0  0  0  0  0
   58.4371   -5.3444   -9.7862 C   0  0  0  0  0  0  0  0  0  0  0  0
   58.0891   -4.7405  -11.0384 C   0  0  0  0  0  0  0  0  0  0  0  0
   56.9091   -4.0770  -11.1663 C   0  0  0  0  0  0  0  0  0  0  0  0
   56.0534   -3.9870  -10.1427 N   0  0  0  0  0  0  0  0  0  0  0  0
   59.7504   -5.9218   -9.6948 C   0  0  0  0  0  0  0  0  0  0  0  0
   60.6674   -6.0999  -10.6835 C   0  0  0  0  0  0  0  0  0  0  0  0
   61.9502   -6.5992  -10.5049 C   0  0  0  0  0  0  0  0  0  0  0  0
   62.3429   -6.9378   -9.2245 C   0  0  0  0  0  0  0  0  0  0  0  0
   61.4808   -6.7661   -8.2048 C   0  0  0  0  0  0  0  0  0  0  0  0
   60.1724   -6.2700   -8.3922 C   0  0  0  0  0  0  0  0  0  0  0  0
 11 12  1  0  0  0
 12 13  1  0  0  0
 12 14  1  0  0  0
 12  5  1  0  0  0
  5  6  2  0  0  0
  6  7  1  0  0  0
  7  8  2  0  0  0
  8  9  1  0  0  0
  9 10  2  0  0  0
  9  1  1  0  0  0
  1  2  2  0  0  0
  1  3  1  0  0  0
  3 15  1  0  0  0
 15 16  2  0  0  0
 16 17  1  0  0  0
 17 18  2  0  0  0
 18 19  1  0  0  0
 19 20  2  0  0  0
 17 21  1  0  0  0
 21 22  2  0  0  0
 22 23  1  0  0  0
 23 24  2  0  0  0
 24 25  1  0  0  0
 25 26  2  0  0  0
 10  5  1  0  0  0
 20 15  1  0  0  0
 26 21  1  0  0  0
  3  4  1  0  0  0
M  END
> <minimizedAffinity>
-9.80468

> <CNNscore>
0.4057849646

> <CNNaffinity>
5.7111368179

> <CNN_VS>
2.3174934387

> <CNNaffinity_variance>
0.1105065718

$$$$
[H]c1nc(N([H])C(=O)c2c([H])c([H])c([H])c(C(F)(F)F)c2[H])c([H])c(-c2c([H])c([H])c([H])c([H])c2[H])c1[H]


 26 28  0  0  0  0  0  0  0  0999 V2000
   56.7714   -4.3698  -10.5915 C   0  0  0  0  0  0  0  0  0  0  0  0
   57.3692   -5.0968   -9.7729 O   0  0  0  0  0  0  0  0  0  0  0  0
   55.4924   -3.8219  -10.2495 N   0  0  0  0  0  0  0  0  0  0  0  0
   54.9512   -3.2282  -10.8690 H   0  0  0  0  0  0  0  0  0  0  0  0
   57.1021   -3.9388  -14.2780 C   0  0  0  0  0  0  0  0  0  0  0  0
   58.4252   -3.5583  -14.4304 C   0  0  0  0  0  0  0  0  0  0  0  0
   59.1891   -3.4923  -13.2712 C   0  0  0  0  0  0  0  0  0  0  0  0
   58.6876   -3.7698  -12.0350 C   0  0  0  0  0  0  0  0  0  0  0  0
   57.3825   -4.1342  -11.8926 C   0  0  0  0  0  0  0  0  0  0  0  0
   56.5892   -4.2201  -13.0416 C   0  0  0  0  0  0  0  0  0  0  0  0
   55.2827   -5.0922  -15.2117 F   0  0  0  0  0  0  0  0  0  0  0  0
   56.1684   -4.0843  -15.4458 C   0  0  0  0  0  0  0  0  0  0  0  0
   55.5896   -2.9051  -15.7604 F   0  0  0  0  0  0  0  0  0  0  0  0
   56.9227   -4.4876  -16.5767 F   0  0  0  0  0  0  0  0  0  0  0  0
   54.9070   -4.2027   -9.0148 C   0  0  0  0  0  0  0  0  0  0  0  0
   53.5779   -3.8369   -8.6508 C   0  0  0  0  0  0  0  0  0  0  0  0
   53.0074   -4.2851   -7.5260 C   0  0  0  0  0  0  0  0  0  0  0  0
   53.7953   -5.1541   -6.7026 C   0  0  0  0  0  0  0  0  0  0  0  0
   55.0643   -5.4722   -7.0729 C   0  0  0  0  0  0  0  0  0  0  0  0
   55.5922   -4.9975   -8.2060 N   0  0  0  0  0  0  0  0  0  0  0  0
   51.7228   -3.9001   -7.0081 C   0  0  0  0  0  0  0  0  0  0  0  0
   51.0316   -4.4425   -5.9697 C   0  0  0  0  0  0  0  0  0  0  0  0
   49.8240   -3.9675   -5.4771 C   0  0  0  0  0  0  0  0  0  0  0  0
   49.2735   -2.8500   -6.0740 C   0  0  0  0  0  0  0  0  0  0  0  0
   49.9238   -2.2620   -7.0957 C   0  0  0  0  0  0  0  0  0  0  0  0
   51.1455   -2.7557   -7.6024 C   0  0  0  0  0  0  0  0  0  0  0  0
 11 12  1  0  0  0
 12 13  1  0  0  0
 12 14  1  0  0  0
 12  5  1  0  0  0
  5  6  2  0  0  0
  6  7  1  0  0  0
  7  8  2  0  0  0
  8  9  1  0  0  0
  9 10  2  0  0  0
  9  1  1  0  0  0
  1  2  2  0  0  0
  1  3  1  0  0  0
  3 15  1  0  0  0
 15 16  2  0  0  0
 16 17  1  0  0  0
 17 18  2  0  0  0
 18 19  1  0  0  0
 19 20  2  0  0  0
 17 21  1  0  0  0
 21 22  2  0  0  0
 22 23  1  0  0  0
 23 24  2  0  0  0
 24 25  1  0  0  0
 25 26  2  0  0  0
 10  5  1  0  0  0
 20 15  1  0  0  0
 26 21  1  0  0  0
  3  4  1  0  0  0
M  END
> <minimizedAffinity>
-10.47500

> <CNNscore>
0.3865099847

> <CNNaffinity>
5.8294744492

> <CNN_VS>
2.2531499863

> <CNNaffinity_variance>
0.2337495387

$$$$
[H]OC([H])([H])C([H])(n1c([H])c(-c2c([H])c([H])nc(-c3nc([H])c(C([H])([H])[H])c([H])c3[H])c2[H])c([H])c1N([H])C(=O)c1sc([H])c([H])c1[H])C([H])([H])[H]


 32 35  0  0  0  0  0  0  0  0999 V2000
   56.4187   -4.6491   -9.2545 C   0  0  0  0  0  0  0  0  0  0  0  0
   55.1002   -4.2031   -9.1287 C   0  0  0  0  0  0  0  0  0  0  0  0
   54.6282   -4.5219   -7.8869 C   0  0  0  0  0  0  0  0  0  0  0  0
   55.6335   -5.1639   -7.2280 N   0  0  0  0  0  0  0  0  0  0  0  0
   56.7011   -5.2408   -8.0406 C   0  0  0  0  0  0  0  0  0  0  0  0
   59.4557   -5.0130  -11.4641 C   0  0  0  0  0  0  0  0  0  0  0  0
   58.5847   -5.1078  -10.4002 C   0  0  0  0  0  0  0  0  0  0  0  0
   57.3293   -4.5420  -10.3844 C   0  0  0  0  0  0  0  0  0  0  0  0
   56.9482   -3.8395  -11.5264 C   0  0  0  0  0  0  0  0  0  0  0  0
   57.8092   -3.7366  -12.5983 C   0  0  0  0  0  0  0  0  0  0  0  0
   59.0072   -4.3100  -12.5409 N   0  0  0  0  0  0  0  0  0  0  0  0
   64.7167   -7.2931  -11.6787 C   0  0  0  0  0  0  0  0  0  0  0  0
   63.3591   -6.7164  -11.6019 C   0  0  0  0  0  0  0  0  0  0  0  0
   62.5478   -6.9563  -10.5131 C   0  0  0  0  0  0  0  0  0  0  0  0
   61.2678   -6.4039  -10.4569 C   0  0  0  0  0  0  0  0  0  0  0  0
   60.7795   -5.6153  -11.4671 C   0  0  0  0  0  0  0  0  0  0  0  0
   61.5886   -5.3954  -12.5185 N   0  0  0  0  0  0  0  0  0  0  0  0
   62.8286   -5.9142  -12.6018 C   0  0  0  0  0  0  0  0  0  0  0  0
   53.3489   -4.2500   -7.3632 N   0  0  0  0  0  0  0  0  0  0  0  0
   52.4357   -3.2887   -7.8606 C   0  0  0  0  0  0  0  0  0  0  0  0
   52.6747   -2.5511   -8.8530 O   0  0  0  0  0  0  0  0  0  0  0  0
   53.0241   -4.8154   -6.5104 H   0  0  0  0  0  0  0  0  0  0  0  0
   51.1174   -3.1213   -7.1938 C   0  0  0  0  0  0  0  0  0  0  0  0
   50.2291   -2.0862   -7.3304 C   0  0  0  0  0  0  0  0  0  0  0  0
   49.0929   -2.1557   -6.6199 C   0  0  0  0  0  0  0  0  0  0  0  0
   48.9148   -3.2496   -5.8205 C   0  0  0  0  0  0  0  0  0  0  0  0
   50.3365   -4.1510   -6.0819 S   0  0  0  0  0  0  0  0  0  0  0  0
   55.5975   -5.6919   -5.8788 C   0  0  0  0  0  0  0  0  0  0  0  0
   56.7797   -6.6080   -5.6623 C   0  0  0  0  0  0  0  0  0  0  0  0
   54.3314   -6.4813   -5.6218 C   0  0  0  0  0  0  0  0  0  0  0  0
   54.3249   -6.9856   -4.3157 O   0  0  0  0  0  0  0  0  0  0  0  0
   53.8859   -7.8861   -4.2723 H   0  0  0  0  0  0  0  0  0  0  0  0
 12 13  1  0  0  0
 13 14  2  0  0  0
 14 15  1  0  0  0
 15 16  2  0  0  0
 16 17  1  0  0  0
 17 18  2  0  0  0
 16  6  1  0  0  0
  6  7  2  0  0  0
  7  8  1  0  0  0
  8  9  2  0  0  0
  9 10  1  0  0  0
 10 11  2  0  0  0
  8  1  1  0  0  0
  1  2  1  0  0  0
  2  3  2  0  0  0
  3 19  1  0  0  0
 19 20  1  0  0  0
 20 21  2  0  0  0
 20 23  1  0  0  0
 23 24  2  0  0  0
 24 25  1  0  0  0
 25 26  2  0  0  0
 26 27  1  0  0  0
  3  4  1  0  0  0
  4  5  1  0  0  0
  4 28  1  0  0  0
 28 29  1  0  0  0
 28 30  1  0  0  0
 30 31  1  0  0  0
 18 13  1  0  0  0
 11  6  1  0  0  0
  5  1  2  0  0  0
 27 23  1  0  0  0
 19 22  1  0  0  0
 31 32  1  0  0  0
M  END
> <minimizedAffinity>
-6.55776

> <CNNscore>
0.5512036085

> <CNNaffinity>
6.7148728371

> <CNN_VS>
3.7012622356

> <CNNaffinity_variance>
0.1509257108

$$$$
[H]OC([H])([H])C([H])(n1c([H])c(-c2c([H])c([H])nc(-c3nc([H])c(C([H])([H])[H])c([H])c3[H])c2[H])c([H])c1N([H])C(=O)c1sc([H])c([H])c1[H])C([H])([H])[H]


 32 35  0  0  0  0  0  0  0  0999 V2000
   56.5270   -4.1456  -10.8966 C   0  0  0  0  0  0  0  0  0  0  0  0
   55.1846   -4.0042  -10.5347 C   0  0  0  0  0  0  0  0  0  0  0  0
   55.0409   -4.2750   -9.2034 C   0  0  0  0  0  0  0  0  0  0  0  0
   56.2771   -4.5856   -8.7212 N   0  0  0  0  0  0  0  0  0  0  0  0
   57.1639   -4.5091   -9.7280 C   0  0  0  0  0  0  0  0  0  0  0  0
   59.1379   -3.7484  -13.5917 C   0  0  0  0  0  0  0  0  0  0  0  0
   58.5262   -3.9190  -12.3685 C   0  0  0  0  0  0  0  0  0  0  0  0
   57.1610   -3.9650  -12.1938 C   0  0  0  0  0  0  0  0  0  0  0  0
   56.3813   -3.8278  -13.3410 C   0  0  0  0  0  0  0  0  0  0  0  0
   56.9796   -3.6566  -14.5713 C   0  0  0  0  0  0  0  0  0  0  0  0
   58.3054   -3.6223  -14.6621 N   0  0  0  0  0  0  0  0  0  0  0  0
   64.8421   -3.7834  -14.2114 C   0  0  0  0  0  0  0  0  0  0  0  0
   63.3735   -3.7509  -14.0576 C   0  0  0  0  0  0  0  0  0  0  0  0
   62.6660   -2.5839  -14.2538 C   0  0  0  0  0  0  0  0  0  0  0  0
   61.2789   -2.5709  -14.1040 C   0  0  0  0  0  0  0  0  0  0  0  0
   60.5816   -3.7011  -13.7618 C   0  0  0  0  0  0  0  0  0  0  0  0
   61.2927   -4.8271  -13.5756 N   0  0  0  0  0  0  0  0  0  0  0  0
   62.6318   -4.8716  -13.7127 C   0  0  0  0  0  0  0  0  0  0  0  0
   53.8515   -4.2458   -8.4489 N   0  0  0  0  0  0  0  0  0  0  0  0
   52.9295   -3.1724   -8.3943 C   0  0  0  0  0  0  0  0  0  0  0  0
   53.0767   -2.0963   -9.0318 O   0  0  0  0  0  0  0  0  0  0  0  0
   53.6097   -5.1087   -7.8578 H   0  0  0  0  0  0  0  0  0  0  0  0
   51.7143   -3.2968   -7.5466 C   0  0  0  0  0  0  0  0  0  0  0  0
   50.6544   -2.4318   -7.4605 C   0  0  0  0  0  0  0  0  0  0  0  0
   49.6631   -2.7590   -6.6175 C   0  0  0  0  0  0  0  0  0  0  0  0
   49.7907   -3.9244   -5.9156 C   0  0  0  0  0  0  0  0  0  0  0  0
   51.2897   -4.5320   -6.4508 S   0  0  0  0  0  0  0  0  0  0  0  0
   56.6198   -4.9451   -7.3598 C   0  0  0  0  0  0  0  0  0  0  0  0
   55.7756   -6.1184   -6.9186 C   0  0  0  0  0  0  0  0  0  0  0  0
   56.3771   -3.7983   -6.4015 C   0  0  0  0  0  0  0  0  0  0  0  0
   55.9804   -4.2819   -5.1489 O   0  0  0  0  0  0  0  0  0  0  0  0
   55.3139   -3.6718   -4.7144 H   0  0  0  0  0  0  0  0  0  0  0  0
 12 13  1  0  0  0
 13 14  2  0  0  0
 14 15  1  0  0  0
 15 16  2  0  0  0
 16 17  1  0  0  0
 17 18  2  0  0  0
 16  6  1  0  0  0
  6  7  2  0  0  0
  7  8  1  0  0  0
  8  9  2  0  0  0
  9 10  1  0  0  0
 10 11  2  0  0  0
  8  1  1  0  0  0
  1  2  1  0  0  0
  2  3  2  0  0  0
  3 19  1  0  0  0
 19 20  1  0  0  0
 20 21  2  0  0  0
 20 23  1  0  0  0
 23 24  2  0  0  0
 24 25  1  0  0  0
 25 26  2  0  0  0
 26 27  1  0  0  0
  3  4  1  0  0  0
  4  5  1  0  0  0
  4 28  1  0  0  0
 28 29  1  0  0  0
 28 30  1  0  0  0
 30 31  1  0  0  0
 18 13  1  0  0  0
 11  6  1  0  0  0
  5  1  2  0  0  0
 27 23  1  0  0  0
 19 22  1  0  0  0
 31 32  1  0  0  0
M  END
> <minimizedAffinity>
-9.08139

> <CNNscore>
0.4875097573

> <CNNaffinity>
6.5522737503

> <CNN_VS>
3.1942973137

> <CNNaffinity_variance>
0.0907910988

$$$$
[H]OC([H])([H])C([H])(n1c([H])c(-c2c([H])c([H])nc(-c3nc([H])c(C([H])([H])[H])c([H])c3[H])c2[H])c([H])c1N([H])C(=O)c1sc([H])c([H])c1[H])C([H])([H])[H]


 32 35  0  0  0  0  0  0  0  0999 V2000
   62.5740   -9.1514   -8.3218 C   0  0  0  0  0  0  0  0  0  0  0  0
   62.0793   -9.3643   -7.0322 C   0  0  0  0  0  0  0  0  0  0  0  0
   62.7092  -10.4409   -6.4747 C   0  0  0  0  0  0  0  0  0  0  0  0
   63.5955  -10.9095   -7.3978 N   0  0  0  0  0  0  0  0  0  0  0  0
   63.5167  -10.1430   -8.4987 C   0  0  0  0  0  0  0  0  0  0  0  0
   62.4974   -7.0442  -11.4510 C   0  0  0  0  0  0  0  0  0  0  0  0
   62.8317   -8.0035  -10.5196 C   0  0  0  0  0  0  0  0  0  0  0  0
   62.2116   -8.1340   -9.2970 C   0  0  0  0  0  0  0  0  0  0  0  0
   61.1908   -7.2274   -9.0163 C   0  0  0  0  0  0  0  0  0  0  0  0
   60.8456   -6.2625   -9.9387 C   0  0  0  0  0  0  0  0  0  0  0  0
   61.4899   -6.1978  -11.0996 N   0  0  0  0  0  0  0  0  0  0  0  0
   64.9228   -6.4619  -16.6183 C   0  0  0  0  0  0  0  0  0  0  0  0
   64.3194   -6.6202  -15.2795 C   0  0  0  0  0  0  0  0  0  0  0  0
   65.0552   -7.1173  -14.2248 C   0  0  0  0  0  0  0  0  0  0  0  0
   64.4693   -7.2606  -12.9666 C   0  0  0  0  0  0  0  0  0  0  0  0
   63.1613   -6.9173  -12.7388 C   0  0  0  0  0  0  0  0  0  0  0  0
   62.4637   -6.4348  -13.7822 N   0  0  0  0  0  0  0  0  0  0  0  0
   63.0008   -6.2848  -15.0081 C   0  0  0  0  0  0  0  0  0  0  0  0
   62.5001  -10.9833   -5.1915 N   0  0  0  0  0  0  0  0  0  0  0  0
   61.5483  -11.9765   -4.8554 C   0  0  0  0  0  0  0  0  0  0  0  0
   60.7628  -12.4976   -5.6906 O   0  0  0  0  0  0  0  0  0  0  0  0
   63.1105  -10.6201   -4.3865 H   0  0  0  0  0  0  0  0  0  0  0  0
   61.4508  -12.4471   -3.4484 C   0  0  0  0  0  0  0  0  0  0  0  0
   60.3671  -13.0015   -2.8182 C   0  0  0  0  0  0  0  0  0  0  0  0
   60.5190  -13.3521   -1.5319 C   0  0  0  0  0  0  0  0  0  0  0  0
   61.7382  -13.1282   -0.9569 C   0  0  0  0  0  0  0  0  0  0  0  0
   62.6391  -12.4353   -2.2259 S   0  0  0  0  0  0  0  0  0  0  0  0
   64.4890  -12.0418   -7.2561 C   0  0  0  0  0  0  0  0  0  0  0  0
   65.7037  -11.8403   -8.1322 C   0  0  0  0  0  0  0  0  0  0  0  0
   63.8185  -13.3365   -7.6639 C   0  0  0  0  0  0  0  0  0  0  0  0
   63.5826  -13.3528   -9.0440 O   0  0  0  0  0  0  0  0  0  0  0  0
   62.7272  -13.8273   -9.2643 H   0  0  0  0  0  0  0  0  0  0  0  0
 12 13  1  0  0  0
 13 14  2  0  0  0
 14 15  1  0  0  0
 15 16  2  0  0  0
 16 17  1  0  0  0
 17 18  2  0  0  0
 16  6  1  0  0  0
  6  7  2  0  0  0
  7  8  1  0  0  0
  8  9  2  0  0  0
  9 10  1  0  0  0
 10 11  2  0  0  0
  8  1  1  0  0  0
  1  2  1  0  0  0
  2  3  2  0  0  0
  3 19  1  0  0  0
 19 20  1  0  0  0
 20 21  2  0  0  0
 20 23  1  0  0  0
 23 24  2  0  0  0
 24 25  1  0  0  0
 25 26  2  0  0  0
 26 27  1  0  0  0
  3  4  1  0  0  0
  4  5  1  0  0  0
  4 28  1  0  0  0
 28 29  1  0  0  0
 28 30  1  0  0  0
 30 31  1  0  0  0
 18 13  1  0  0  0
 11  6  1  0  0  0
  5  1  2  0  0  0
 27 23  1  0  0  0
 19 22  1  0  0  0
 31 32  1  0  0  0
M  END
> <minimizedAffinity>
-2.86265

> <CNNscore>
0.3880707324

> <CNNaffinity>
4.8544993401

> <CNN_VS>
1.8838890791

> <CNNaffinity_variance>
0.2692498863

$$$$
[H]OC([H])([H])C([H])(n1c([H])c(-c2c([H])c([H])nc(-c3nc([H])c(C([H])([H])[H])c([H])c3[H])c2[H])c([H])c1N([H])C(=O)c1sc([H])c([H])c1[H])C([H])([H])[H]


 32 35  0  0  0  0  0  0  0  0999 V2000
   56.9305   -4.0314  -11.2653 C   0  0  0  0  0  0  0  0  0  0  0  0
   58.2375   -3.7418  -11.6667 C   0  0  0  0  0  0  0  0  0  0  0  0
   58.2651   -3.5415  -13.0178 C   0  0  0  0  0  0  0  0  0  0  0  0
   56.9907   -3.7014  -13.4734 N   0  0  0  0  0  0  0  0  0  0  0  0
   56.1940   -3.9932  -12.4313 C   0  0  0  0  0  0  0  0  0  0  0  0
   54.6315   -4.2563   -8.2817 C   0  0  0  0  0  0  0  0  0  0  0  0
   55.1343   -3.9908   -9.5371 C   0  0  0  0  0  0  0  0  0  0  0  0
   56.4111   -4.3174   -9.9365 C   0  0  0  0  0  0  0  0  0  0  0  0
   57.2158   -4.9526   -8.9921 C   0  0  0  0  0  0  0  0  0  0  0  0
   56.7259   -5.2247   -7.7323 C   0  0  0  0  0  0  0  0  0  0  0  0
   55.4813   -4.8791   -7.4186 N   0  0  0  0  0  0  0  0  0  0  0  0
   49.3064   -3.0442   -6.5218 C   0  0  0  0  0  0  0  0  0  0  0  0
   50.6761   -3.3376   -6.9901 C   0  0  0  0  0  0  0  0  0  0  0  0
   51.2706   -2.5687   -7.9681 C   0  0  0  0  0  0  0  0  0  0  0  0
   52.5653   -2.8600   -8.3990 C   0  0  0  0  0  0  0  0  0  0  0  0
   53.2805   -3.9051   -7.8729 C   0  0  0  0  0  0  0  0  0  0  0  0
   52.6803   -4.6408   -6.9207 N   0  0  0  0  0  0  0  0  0  0  0  0
   51.4324   -4.3848   -6.4838 C   0  0  0  0  0  0  0  0  0  0  0  0
   59.3854   -3.2283  -13.8125 N   0  0  0  0  0  0  0  0  0  0  0  0
   60.6383   -3.8872  -13.7771 C   0  0  0  0  0  0  0  0  0  0  0  0
   60.8950   -4.8520  -13.0094 O   0  0  0  0  0  0  0  0  0  0  0  0
   59.2949   -2.4194  -14.5126 H   0  0  0  0  0  0  0  0  0  0  0  0
   61.7260   -3.4356  -14.6847 C   0  0  0  0  0  0  0  0  0  0  0  0
   61.6943   -3.3299  -16.0510 C   0  0  0  0  0  0  0  0  0  0  0  0
   62.8089   -2.8947  -16.6582 C   0  0  0  0  0  0  0  0  0  0  0  0
   63.8816   -2.5934  -15.8671 C   0  0  0  0  0  0  0  0  0  0  0  0
   63.3061   -2.9252  -14.2983 S   0  0  0  0  0  0  0  0  0  0  0  0
   56.5308   -3.5866  -14.8429 C   0  0  0  0  0  0  0  0  0  0  0  0
   56.0632   -4.9370  -15.3344 C   0  0  0  0  0  0  0  0  0  0  0  0
   57.6312   -3.1012  -15.7626 C   0  0  0  0  0  0  0  0  0  0  0  0
   58.1643   -4.1688  -16.4950 O   0  0  0  0  0  0  0  0  0  0  0  0
   59.1490   -4.0546  -16.6460 H   0  0  0  0  0  0  0  0  0  0  0  0
 12 13  1  0  0  0
 13 14  2  0  0  0
 14 15  1  0  0  0
 15 16  2  0  0  0
 16 17  1  0  0  0
 17 18  2  0  0  0
 16  6  1  0  0  0
  6  7  2  0  0  0
  7  8  1  0  0  0
  8  9  2  0  0  0
  9 10  1  0  0  0
 10 11  2  0  0  0
  8  1  1  0  0  0
  1  2  1  0  0  0
  2  3  2  0  0  0
  3 19  1  0  0  0
 19 20  1  0  0  0
 20 21  2  0  0  0
 20 23  1  0  0  0
 23 24  2  0  0  0
 24 25  1  0  0  0
 25 26  2  0  0  0
 26 27  1  0  0  0
  3  4  1  0  0  0
  4  5  1  0  0  0
  4 28  1  0  0  0
 28 29  1  0  0  0
 28 30  1  0  0  0
 30 31  1  0  0  0
 18 13  1  0  0  0
 11  6  1  0  0  0
  5  1  2  0  0  0
 27 23  1  0  0  0
 19 22  1  0  0  0
 31 32  1  0  0  0
M  END
> <minimizedAffinity>
-9.52483

> <CNNscore>
0.3781299591

> <CNNaffinity>
6.2953395844

> <CNN_VS>
2.3804564476

> <CNNaffinity_variance>
0.0359792337

$$$$
[H]OC([H])([H])C([H])(n1c([H])c(-c2c([H])c([H])nc(-c3nc([H])c(C([H])([H])[H])c([H])c3[H])c2[H])c([H])c1N([H])C(=O)c1sc([H])c([H])c1[H])C([H])([H])[H]


 32 35  0  0  0  0  0  0  0  0999 V2000
   56.2257   -4.7428   -8.8803 C   0  0  0  0  0  0  0  0  0  0  0  0
   55.0005   -4.0793   -8.7725 C   0  0  0  0  0  0  0  0  0  0  0  0
   54.4366   -4.3583   -7.5598 C   0  0  0  0  0  0  0  0  0  0  0  0
   55.2919   -5.1902   -6.9014 N   0  0  0  0  0  0  0  0  0  0  0  0
   56.3583   -5.4206   -7.6860 C   0  0  0  0  0  0  0  0  0  0  0  0
   57.7635   -4.3520  -12.3038 C   0  0  0  0  0  0  0  0  0  0  0  0
   56.8679   -4.3469  -11.2563 C   0  0  0  0  0  0  0  0  0  0  0  0
   57.1807   -4.7528   -9.9781 C   0  0  0  0  0  0  0  0  0  0  0  0
   58.4876   -5.1883   -9.7652 C   0  0  0  0  0  0  0  0  0  0  0  0
   59.3943   -5.1987  -10.8038 C   0  0  0  0  0  0  0  0  0  0  0  0
   59.0192   -4.7916  -12.0124 N   0  0  0  0  0  0  0  0  0  0  0  0
   56.6267   -2.6161  -17.6534 C   0  0  0  0  0  0  0  0  0  0  0  0
   56.8958   -3.0666  -16.2727 C   0  0  0  0  0  0  0  0  0  0  0  0
   55.8667   -3.4511  -15.4395 C   0  0  0  0  0  0  0  0  0  0  0  0
   56.1387   -3.8737  -14.1379 C   0  0  0  0  0  0  0  0  0  0  0  0
   57.4193   -3.9208  -13.6496 C   0  0  0  0  0  0  0  0  0  0  0  0
   58.4063   -3.5412  -14.4802 N   0  0  0  0  0  0  0  0  0  0  0  0
   58.1759   -3.1286  -15.7414 C   0  0  0  0  0  0  0  0  0  0  0  0
   53.2058   -3.8880   -7.0612 N   0  0  0  0  0  0  0  0  0  0  0  0
   52.0431   -4.6684   -6.8507 C   0  0  0  0  0  0  0  0  0  0  0  0
   51.9808   -5.9026   -7.0934 O   0  0  0  0  0  0  0  0  0  0  0  0
   53.1285   -2.8461   -6.8143 H   0  0  0  0  0  0  0  0  0  0  0  0
   50.8167   -4.0205   -6.3150 C   0  0  0  0  0  0  0  0  0  0  0  0
   50.0877   -3.0034   -6.8747 C   0  0  0  0  0  0  0  0  0  0  0  0
   49.0082   -2.5796   -6.1997 C   0  0  0  0  0  0  0  0  0  0  0  0
   48.7247   -3.1946   -5.0129 C   0  0  0  0  0  0  0  0  0  0  0  0
   49.9712   -4.3472   -4.8711 S   0  0  0  0  0  0  0  0  0  0  0  0
   55.1173   -5.7550   -5.5782 C   0  0  0  0  0  0  0  0  0  0  0  0
   55.9284   -4.9630   -4.5790 C   0  0  0  0  0  0  0  0  0  0  0  0
   55.5724   -7.1979   -5.5225 C   0  0  0  0  0  0  0  0  0  0  0  0
   56.7999   -7.2993   -4.8567 O   0  0  0  0  0  0  0  0  0  0  0  0
   57.3742   -8.0189   -5.2536 H   0  0  0  0  0  0  0  0  0  0  0  0
 12 13  1  0  0  0
 13 14  2  0  0  0
 14 15  1  0  0  0
 15 16  2  0  0  0
 16 17  1  0  0  0
 17 18  2  0  0  0
 16  6  1  0  0  0
  6  7  2  0  0  0
  7  8  1  0  0  0
  8  9  2  0  0  0
  9 10  1  0  0  0
 10 11  2  0  0  0
  8  1  1  0  0  0
  1  2  1  0  0  0
  2  3  2  0  0  0
  3 19  1  0  0  0
 19 20  1  0  0  0
 20 21  2  0  0  0
 20 23  1  0  0  0
 23 24  2  0  0  0
 24 25  1  0  0  0
 25 26  2  0  0  0
 26 27  1  0  0  0
  3  4  1  0  0  0
  4  5  1  0  0  0
  4 28  1  0  0  0
 28 29  1  0  0  0
 28 30  1  0  0  0
 30 31  1  0  0  0
 18 13  1  0  0  0
 11  6  1  0  0  0
  5  1  2  0  0  0
 27 23  1  0  0  0
 19 22  1  0  0  0
 31 32  1  0  0  0
M  END
> <minimizedAffinity>
-9.12995

> <CNNscore>
0.3557018042

> <CNNaffinity>
6.6551070213

> <CNN_VS>
2.3672335148

> <CNNaffinity_variance>
0.1203763708

$$$$
[H]OC([H])([H])C([H])(n1c([H])c(-c2c([H])c([H])nc(-c3nc([H])c(C([H])([H])[H])c([H])c3[H])c2[H])c([H])c1N([H])C(=O)c1sc([H])c([H])c1[H])C([H])([H])[H]


 32 35  0  0  0  0  0  0  0  0999 V2000
   59.4501   -5.8460   -9.7497 C   0  0  0  0  0  0  0  0  0  0  0  0
   59.9773   -5.9131   -8.4572 C   0  0  0  0  0  0  0  0  0  0  0  0
   61.0897   -6.7062   -8.4597 C   0  0  0  0  0  0  0  0  0  0  0  0
   61.2703   -7.1402   -9.7388 N   0  0  0  0  0  0  0  0  0  0  0  0
   60.2949   -6.6290  -10.5090 C   0  0  0  0  0  0  0  0  0  0  0  0
   56.0116   -4.3053   -9.9534 C   0  0  0  0  0  0  0  0  0  0  0  0
   57.1256   -4.9798   -9.5023 C   0  0  0  0  0  0  0  0  0  0  0  0
   58.2802   -5.1311  -10.2373 C   0  0  0  0  0  0  0  0  0  0  0  0
   58.2899   -4.5567  -11.5073 C   0  0  0  0  0  0  0  0  0  0  0  0
   57.1827   -3.8789  -11.9716 C   0  0  0  0  0  0  0  0  0  0  0  0
   56.1025   -3.7737  -11.2040 N   0  0  0  0  0  0  0  0  0  0  0  0
   51.1514   -3.5516   -6.9983 C   0  0  0  0  0  0  0  0  0  0  0  0
   52.4095   -3.7621   -7.7428 C   0  0  0  0  0  0  0  0  0  0  0  0
   53.3543   -4.6624   -7.2977 C   0  0  0  0  0  0  0  0  0  0  0  0
   54.5375   -4.8486   -8.0132 C   0  0  0  0  0  0  0  0  0  0  0  0
   54.7981   -4.1535   -9.1663 C   0  0  0  0  0  0  0  0  0  0  0  0
   53.8623   -3.2813   -9.5808 N   0  0  0  0  0  0  0  0  0  0  0  0
   52.7106   -3.0794   -8.9124 C   0  0  0  0  0  0  0  0  0  0  0  0
   61.9111   -7.0295   -7.3618 N   0  0  0  0  0  0  0  0  0  0  0  0
   63.2138   -6.5277   -7.1237 C   0  0  0  0  0  0  0  0  0  0  0  0
   63.7965   -5.7151   -7.8894 O   0  0  0  0  0  0  0  0  0  0  0  0
   61.5274   -7.7169   -6.6319 H   0  0  0  0  0  0  0  0  0  0  0  0
   63.9550   -6.9677   -5.9122 C   0  0  0  0  0  0  0  0  0  0  0  0
   63.6517   -6.7133   -4.5998 C   0  0  0  0  0  0  0  0  0  0  0  0
   64.4765   -7.2201   -3.6707 C   0  0  0  0  0  0  0  0  0  0  0  0
   65.5484   -7.9464   -4.1075 C   0  0  0  0  0  0  0  0  0  0  0  0
   65.3764   -7.9026   -5.8018 S   0  0  0  0  0  0  0  0  0  0  0  0
   62.3227   -8.0087  -10.2272 C   0  0  0  0  0  0  0  0  0  0  0  0
   62.7866   -7.5284  -11.5829 C   0  0  0  0  0  0  0  0  0  0  0  0
   61.8462   -9.4389  -10.3674 C   0  0  0  0  0  0  0  0  0  0  0  0
   61.3373   -9.9075   -9.1500 O   0  0  0  0  0  0  0  0  0  0  0  0
   61.5387  -10.8808   -9.0185 H   0  0  0  0  0  0  0  0  0  0  0  0
 12 13  1  0  0  0
 13 14  2  0  0  0
 14 15  1  0  0  0
 15 16  2  0  0  0
 16 17  1  0  0  0
 17 18  2  0  0  0
 16  6  1  0  0  0
  6  7  2  0  0  0
  7  8  1  0  0  0
  8  9  2  0  0  0
  9 10  1  0  0  0
 10 11  2  0  0  0
  8  1  1  0  0  0
  1  2  1  0  0  0
  2  3  2  0  0  0
  3 19  1  0  0  0
 19 20  1  0  0  0
 20 21  2  0  0  0
 20 23  1  0  0  0
 23 24  2  0  0  0
 24 25  1  0  0  0
 25 26  2  0  0  0
 26 27  1  0  0  0
  3  4  1  0  0  0
  4  5  1  0  0  0
  4 28  1  0  0  0
 28 29  1  0  0  0
 28 30  1  0  0  0
 30 31  1  0  0  0
 18 13  1  0  0  0
 11  6  1  0  0  0
  5  1  2  0  0  0
 27 23  1  0  0  0
 19 22  1  0  0  0
 31 32  1  0  0  0
M  END
> <minimizedAffinity>
-7.02459

> <CNNscore>
0.3348166347

> <CNNaffinity>
5.8137531281

> <CNN_VS>
1.9465413094

> <CNNaffinity_variance>
0.0492000803

$$$$
[H]OC([H])([H])C([H])(n1c([H])c(-c2c([H])c([H])nc(-c3nc([H])c(C([H])([H])[H])c([H])c3[H])c2[H])c([H])c1N([H])C(=O)c1sc([H])c([H])c1[H])C([H])([H])[H]


 32 35  0  0  0  0  0  0  0  0999 V2000
   58.8610   -5.7206  -10.4476 C   0  0  0  0  0  0  0  0  0  0  0  0
   58.7710   -5.3815  -11.8004 C   0  0  0  0  0  0  0  0  0  0  0  0
   57.6781   -4.5860  -11.9986 C   0  0  0  0  0  0  0  0  0  0  0  0
   57.0777   -4.4195  -10.7866 N   0  0  0  0  0  0  0  0  0  0  0  0
   57.7806   -5.0944   -9.8612 C   0  0  0  0  0  0  0  0  0  0  0  0
   61.7635   -6.7956   -8.2892 C   0  0  0  0  0  0  0  0  0  0  0  0
   60.8253   -6.0266   -8.9433 C   0  0  0  0  0  0  0  0  0  0  0  0
   59.8462   -6.5435   -9.7622 C   0  0  0  0  0  0  0  0  0  0  0  0
   59.8309   -7.9286   -9.9170 C   0  0  0  0  0  0  0  0  0  0  0  0
   60.7633   -8.7105   -9.2687 C   0  0  0  0  0  0  0  0  0  0  0  0
   61.6798   -8.1395   -8.4933 N   0  0  0  0  0  0  0  0  0  0  0  0
   65.7318   -4.3829   -4.9197 C   0  0  0  0  0  0  0  0  0  0  0  0
   64.7205   -5.0255   -5.7833 C   0  0  0  0  0  0  0  0  0  0  0  0
   64.7469   -6.3844   -6.0151 C   0  0  0  0  0  0  0  0  0  0  0  0
   63.7839   -6.9751   -6.8338 C   0  0  0  0  0  0  0  0  0  0  0  0
   62.7929   -6.2361   -7.4274 C   0  0  0  0  0  0  0  0  0  0  0  0
   62.7874   -4.9131   -7.1869 N   0  0  0  0  0  0  0  0  0  0  0  0
   63.7027   -4.3137   -6.4016 C   0  0  0  0  0  0  0  0  0  0  0  0
   57.2346   -4.0309  -13.2151 N   0  0  0  0  0  0  0  0  0  0  0  0
   57.9730   -3.9807  -14.4224 C   0  0  0  0  0  0  0  0  0  0  0  0
   59.1396   -4.4394  -14.5435 O   0  0  0  0  0  0  0  0  0  0  0  0
   56.2499   -3.6043  -13.2437 H   0  0  0  0  0  0  0  0  0  0  0  0
   57.3613   -3.3586  -15.6264 C   0  0  0  0  0  0  0  0  0  0  0  0
   57.9832   -2.6300  -16.6069 C   0  0  0  0  0  0  0  0  0  0  0  0
   57.2163   -2.1656  -17.6052 C   0  0  0  0  0  0  0  0  0  0  0  0
   55.8818   -2.4560  -17.5630 C   0  0  0  0  0  0  0  0  0  0  0  0
   55.7332   -3.3689  -16.1323 S   0  0  0  0  0  0  0  0  0  0  0  0
   55.8809   -3.6535  -10.5015 C   0  0  0  0  0  0  0  0  0  0  0  0
   55.6876   -3.5553   -9.0059 C   0  0  0  0  0  0  0  0  0  0  0  0
   54.6488   -4.2999  -11.0984 C   0  0  0  0  0  0  0  0  0  0  0  0
   53.5121   -3.9732  -10.3491 O   0  0  0  0  0  0  0  0  0  0  0  0
   52.8605   -4.7347  -10.3200 H   0  0  0  0  0  0  0  0  0  0  0  0
 12 13  1  0  0  0
 13 14  2  0  0  0
 14 15  1  0  0  0
 15 16  2  0  0  0
 16 17  1  0  0  0
 17 18  2  0  0  0
 16  6  1  0  0  0
  6  7  2  0  0  0
  7  8  1  0  0  0
  8  9  2  0  0  0
  9 10  1  0  0  0
 10 11  2  0  0  0
  8  1  1  0  0  0
  1  2  1  0  0  0
  2  3  2  0  0  0
  3 19  1  0  0  0
 19 20  1  0  0  0
 20 21  2  0  0  0
 20 23  1  0  0  0
 23 24  2  0  0  0
 24 25  1  0  0  0
 25 26  2  0  0  0
 26 27  1  0  0  0
  3  4  1  0  0  0
  4  5  1  0  0  0
  4 28  1  0  0  0
 28 29  1  0  0  0
 28 30  1  0  0  0
 30 31  1  0  0  0
 18 13  1  0  0  0
 11  6  1  0  0  0
  5  1  2  0  0  0
 27 23  1  0  0  0
 19 22  1  0  0  0
 31 32  1  0  0  0
M  END
> <minimizedAffinity>
1.28548

> <CNNscore>
0.3057576716

> <CNNaffinity>
5.3457651138

> <CNN_VS>
1.6345087290

> <CNNaffinity_variance>
0.1262508929

$$$$
[H]OC([H])([H])C([H])(n1c([H])c(-c2c([H])c([H])nc(-c3nc([H])c(C([H])([H])[H])c([H])c3[H])c2[H])c([H])c1N([H])C(=O)c1sc([H])c([H])c1[H])C([H])([H])[H]


 32 35  0  0  0  0  0  0  0  0999 V2000
   58.9405   -6.9568   -5.8667 C   0  0  0  0  0  0  0  0  0  0  0  0
   57.6396   -6.7939   -5.3827 C   0  0  0  0  0  0  0  0  0  0  0  0
   57.5803   -7.2169   -4.0850 C   0  0  0  0  0  0  0  0  0  0  0  0
   58.8286   -7.6448   -3.7449 N   0  0  0  0  0  0  0  0  0  0  0  0
   59.6405   -7.4908   -4.8045 C   0  0  0  0  0  0  0  0  0  0  0  0
   59.2621   -5.7480   -9.4268 C   0  0  0  0  0  0  0  0  0  0  0  0
   58.7573   -6.0418   -8.1784 C   0  0  0  0  0  0  0  0  0  0  0  0
   59.4852   -6.6517   -7.1811 C   0  0  0  0  0  0  0  0  0  0  0  0
   60.8060   -6.9778   -7.4845 C   0  0  0  0  0  0  0  0  0  0  0  0
   61.3244   -6.6897   -8.7292 C   0  0  0  0  0  0  0  0  0  0  0  0
   60.5603   -6.0989   -9.6425 N   0  0  0  0  0  0  0  0  0  0  0  0
   55.9973   -3.2319  -13.4184 C   0  0  0  0  0  0  0  0  0  0  0  0
   56.8571   -3.8764  -12.4050 C   0  0  0  0  0  0  0  0  0  0  0  0
   58.2095   -4.0356  -12.6207 C   0  0  0  0  0  0  0  0  0  0  0  0
   59.0070   -4.6470  -11.6528 C   0  0  0  0  0  0  0  0  0  0  0  0
   58.4816   -5.1038  -10.4713 C   0  0  0  0  0  0  0  0  0  0  0  0
   57.1605   -4.9376  -10.2833 N   0  0  0  0  0  0  0  0  0  0  0  0
   56.3646   -4.3515  -11.1981 C   0  0  0  0  0  0  0  0  0  0  0  0
   56.4545   -7.2206   -3.2381 N   0  0  0  0  0  0  0  0  0  0  0  0
   55.3373   -6.3562   -3.3390 C   0  0  0  0  0  0  0  0  0  0  0  0
   55.2255   -5.4646   -4.2214 O   0  0  0  0  0  0  0  0  0  0  0  0
   56.4278   -7.9384   -2.4403 H   0  0  0  0  0  0  0  0  0  0  0  0
   54.2230   -6.4874   -2.3634 C   0  0  0  0  0  0  0  0  0  0  0  0
   54.2864   -6.4117   -0.9962 C   0  0  0  0  0  0  0  0  0  0  0  0
   53.1373   -6.5628   -0.3199 C   0  0  0  0  0  0  0  0  0  0  0  0
   52.0011   -6.7793   -1.0474 C   0  0  0  0  0  0  0  0  0  0  0  0
   52.5664   -6.7659   -2.6544 S   0  0  0  0  0  0  0  0  0  0  0  0
   59.2504   -8.1837   -2.4674 C   0  0  0  0  0  0  0  0  0  0  0  0
   59.9142   -9.5248   -2.6783 C   0  0  0  0  0  0  0  0  0  0  0  0
   58.0786   -8.3760   -1.5282 C   0  0  0  0  0  0  0  0  0  0  0  0
   57.4536   -9.6054   -1.7697 O   0  0  0  0  0  0  0  0  0  0  0  0
   56.4619   -9.5457   -1.6344 H   0  0  0  0  0  0  0  0  0  0  0  0
 12 13  1  0  0  0
 13 14  2  0  0  0
 14 15  1  0  0  0
 15 16  2  0  0  0
 16 17  1  0  0  0
 17 18  2  0  0  0
 16  6  1  0  0  0
  6  7  2  0  0  0
  7  8  1  0  0  0
  8  9  2  0  0  0
  9 10  1  0  0  0
 10 11  2  0  0  0
  8  1  1  0  0  0
  1  2  1  0  0  0
  2  3  2  0  0  0
  3 19  1  0  0  0
 19 20  1  0  0  0
 20 21  2  0  0  0
 20 23  1  0  0  0
 23 24  2  0  0  0
 24 25  1  0  0  0
 25 26  2  0  0  0
 26 27  1  0  0  0
  3  4  1  0  0  0
  4  5  1  0  0  0
  4 28  1  0  0  0
 28 29  1  0  0  0
 28 30  1  0  0  0
 30 31  1  0  0  0
 18 13  1  0  0  0
 11  6  1  0  0  0
  5  1  2  0  0  0
 27 23  1  0  0  0
 19 22  1  0  0  0
 31 32  1  0  0  0
M  END
> <minimizedAffinity>
0.42860

> <CNNscore>
0.3013165891

> <CNNaffinity>
5.5657229424

> <CNN_VS>
1.6770446301

> <CNNaffinity_variance>
0.4262754917

$$$$
[H]OC([H])([H])C([H])(n1c([H])c(-c2c([H])c([H])nc(-c3nc([H])c(C([H])([H])[H])c([H])c3[H])c2[H])c([H])c1N([H])C(=O)c1sc([H])c([H])c1[H])C([H])([H])[H]


 32 35  0  0  0  0  0  0  0  0999 V2000
   56.5545   -3.9632  -10.5553 C   0  0  0  0  0  0  0  0  0  0  0  0
   57.1433   -4.3640   -9.3529 C   0  0  0  0  0  0  0  0  0  0  0  0
   56.2317   -4.2556   -8.3411 C   0  0  0  0  0  0  0  0  0  0  0  0
   55.0747   -3.7912   -8.8913 N   0  0  0  0  0  0  0  0  0  0  0  0
   55.2646   -3.6164  -10.2102 C   0  0  0  0  0  0  0  0  0  0  0  0
   59.0332   -3.8038  -13.3960 C   0  0  0  0  0  0  0  0  0  0  0  0
   58.4806   -3.8602  -12.1346 C   0  0  0  0  0  0  0  0  0  0  0  0
   57.1257   -3.9040  -11.8924 C   0  0  0  0  0  0  0  0  0  0  0  0
   56.2924   -3.8890  -13.0096 C   0  0  0  0  0  0  0  0  0  0  0  0
   56.8313   -3.8329  -14.2775 C   0  0  0  0  0  0  0  0  0  0  0  0
   58.1508   -3.7928  -14.4333 N   0  0  0  0  0  0  0  0  0  0  0  0
   64.7027   -3.8366  -14.2782 C   0  0  0  0  0  0  0  0  0  0  0  0
   63.2424   -3.8053  -14.0588 C   0  0  0  0  0  0  0  0  0  0  0  0
   62.5100   -2.6678  -14.3248 C   0  0  0  0  0  0  0  0  0  0  0  0
   61.1312   -2.6555  -14.1116 C   0  0  0  0  0  0  0  0  0  0  0  0
   60.4667   -3.7574  -13.6374 C   0  0  0  0  0  0  0  0  0  0  0  0
   61.2017   -4.8548  -13.3853 N   0  0  0  0  0  0  0  0  0  0  0  0
   62.5335   -4.8979  -13.5808 C   0  0  0  0  0  0  0  0  0  0  0  0
   56.4264   -4.5598   -6.9794 N   0  0  0  0  0  0  0  0  0  0  0  0
   55.9316   -5.7027   -6.3054 C   0  0  0  0  0  0  0  0  0  0  0  0
   55.2440   -6.5968   -6.8656 O   0  0  0  0  0  0  0  0  0  0  0  0
   56.9999   -3.8718   -6.3876 H   0  0  0  0  0  0  0  0  0  0  0  0
   56.2256   -5.8808   -4.8588 C   0  0  0  0  0  0  0  0  0  0  0  0
   55.8022   -5.1050   -3.8110 C   0  0  0  0  0  0  0  0  0  0  0  0
   56.1995   -5.4661   -2.5812 C   0  0  0  0  0  0  0  0  0  0  0  0
   56.9916   -6.5744   -2.4743 C   0  0  0  0  0  0  0  0  0  0  0  0
   57.1602   -7.0825   -4.0916 S   0  0  0  0  0  0  0  0  0  0  0  0
   53.8283   -3.5170   -8.2047 C   0  0  0  0  0  0  0  0  0  0  0  0
   52.8844   -4.6834   -8.3846 C   0  0  0  0  0  0  0  0  0  0  0  0
   53.1550   -2.2732   -8.7451 C   0  0  0  0  0  0  0  0  0  0  0  0
   52.0146   -2.6142   -9.4823 O   0  0  0  0  0  0  0  0  0  0  0  0
   51.8829   -1.9965  -10.2610 H   0  0  0  0  0  0  0  0  0  0  0  0
 12 13  1  0  0  0
 13 14  2  0  0  0
 14 15  1  0  0  0
 15 16  2  0  0  0
 16 17  1  0  0  0
 17 18  2  0  0  0
 16  6  1  0  0  0
  6  7  2  0  0  0
  7  8  1  0  0  0
  8  9  2  0  0  0
  9 10  1  0  0  0
 10 11  2  0  0  0
  8  1  1  0  0  0
  1  2  1  0  0  0
  2  3  2  0  0  0
  3 19  1  0  0  0
 19 20  1  0  0  0
 20 21  2  0  0  0
 20 23  1  0  0  0
 23 24  2  0  0  0
 24 25  1  0  0  0
 25 26  2  0  0  0
 26 27  1  0  0  0
  3  4  1  0  0  0
  4  5  1  0  0  0
  4 28  1  0  0  0
 28 29  1  0  0  0
 28 30  1  0  0  0
 30 31  1  0  0  0
 18 13  1  0  0  0
 11  6  1  0  0  0
  5  1  2  0  0  0
 27 23  1  0  0  0
 19 22  1  0  0  0
 31 32  1  0  0  0
M  END
> <minimizedAffinity>
-7.92410

> <CNNscore>
0.2979837060

> <CNNaffinity>
6.0661215782

> <CNN_VS>
1.8076053858

> <CNNaffinity_variance>
0.3236567676

$$$$
[H]c1nc(Oc2c([H])c([H])c(N([H])C(=O)N([H])c3c([H])c([H])c(C([H])([H])N4C([H])([H])C([H])([H])N(C([H])([H])C([H])([H])[H])C([H])([H])C4([H])[H])c(C(F)(F)F)c3[H])c(F)c2[H])c([H])c(N([H])C([H])([H])[H])n1


 42 45  0  0  0  0  0  0  0  0999 V2000
   60.4726   -6.5546   -8.5208 N   0  0  0  0  0  0  0  0  0  0  0  0
   59.3622   -5.9007   -9.1103 C   0  0  0  0  0  0  0  0  0  0  0  0
   59.3192   -5.6718  -10.3198 O   0  0  0  0  0  0  0  0  0  0  0  0
   58.2928   -5.5143   -8.2642 N   0  0  0  0  0  0  0  0  0  0  0  0
   60.3882   -6.6961   -7.4687 H   0  0  0  0  0  0  0  0  0  0  0  0
   58.3965   -5.7467   -7.2142 H   0  0  0  0  0  0  0  0  0  0  0  0
   57.1286   -4.8614   -8.6911 C   0  0  0  0  0  0  0  0  0  0  0  0
   56.6643   -4.7571   -9.9694 C   0  0  0  0  0  0  0  0  0  0  0  0
   55.4734   -4.0742  -10.3058 C   0  0  0  0  0  0  0  0  0  0  0  0
   54.7525   -3.4885   -9.2918 C   0  0  0  0  0  0  0  0  0  0  0  0
   55.1792   -3.5640   -7.9759 C   0  0  0  0  0  0  0  0  0  0  0  0
   56.3351   -4.2344   -7.7018 C   0  0  0  0  0  0  0  0  0  0  0  0
   56.7479   -4.3062   -6.4102 F   0  0  0  0  0  0  0  0  0  0  0  0
   53.5828   -2.8167   -9.6128 O   0  0  0  0  0  0  0  0  0  0  0  0
   52.5275   -2.8643   -8.7074 C   0  0  0  0  0  0  0  0  0  0  0  0
   52.3571   -3.9959   -7.9362 C   0  0  0  0  0  0  0  0  0  0  0  0
   51.3270   -4.1030   -7.0193 C   0  0  0  0  0  0  0  0  0  0  0  0
   50.4979   -3.0455   -6.9173 N   0  0  0  0  0  0  0  0  0  0  0  0
   50.6381   -1.9319   -7.6533 C   0  0  0  0  0  0  0  0  0  0  0  0
   51.6578   -1.8534   -8.5459 N   0  0  0  0  0  0  0  0  0  0  0  0
   51.1644   -5.2721   -6.2353 N   0  0  0  0  0  0  0  0  0  0  0  0
   52.0490   -5.5183   -5.1287 C   0  0  0  0  0  0  0  0  0  0  0  0
   50.4111   -5.9447   -6.4596 H   0  0  0  0  0  0  0  0  0  0  0  0
   63.7758   -8.0583  -10.6886 C   0  0  0  0  0  0  0  0  0  0  0  0
   62.5118   -8.6264  -10.7018 C   0  0  0  0  0  0  0  0  0  0  0  0
   61.4428   -8.1401  -10.0038 C   0  0  0  0  0  0  0  0  0  0  0  0
   61.6084   -6.9935   -9.2150 C   0  0  0  0  0  0  0  0  0  0  0  0
   62.8554   -6.4453   -9.2092 C   0  0  0  0  0  0  0  0  0  0  0  0
   63.9576   -6.9320   -9.9192 C   0  0  0  0  0  0  0  0  0  0  0  0
   65.2506   -6.2476   -9.8427 C   0  0  0  0  0  0  0  0  0  0  0  0
   66.3012   -6.9984   -9.3995 F   0  0  0  0  0  0  0  0  0  0  0  0
   65.1291   -5.2348   -8.8722 F   0  0  0  0  0  0  0  0  0  0  0  0
   65.5569   -5.5172  -11.0028 F   0  0  0  0  0  0  0  0  0  0  0  0
   64.9271   -8.5800  -11.4130 C   0  0  0  0  0  0  0  0  0  0  0  0
   65.9897   -9.4785  -15.2898 N   0  0  0  0  0  0  0  0  0  0  0  0
   64.7343   -8.7981  -15.0499 C   0  0  0  0  0  0  0  0  0  0  0  0
   64.2625   -8.9680  -13.6307 C   0  0  0  0  0  0  0  0  0  0  0  0
   65.1029   -8.1040  -12.7707 N   0  0  0  0  0  0  0  0  0  0  0  0
   66.4994   -8.3008  -13.1718 C   0  0  0  0  0  0  0  0  0  0  0  0
   66.6878   -9.5179  -14.0228 C   0  0  0  0  0  0  0  0  0  0  0  0
   64.7461  -11.0577  -16.7312 C   0  0  0  0  0  0  0  0  0  0  0  0
   65.8152  -10.8492  -15.7085 C   0  0  0  0  0  0  0  0  0  0  0  0
 41 42  1  0  0  0
 42 35  1  0  0  0
 35 36  1  0  0  0
 36 37  1  0  0  0
 37 38  1  0  0  0
 38 34  1  0  0  0
 34 24  1  0  0  0
 24 25  2  0  0  0
 25 26  1  0  0  0
 26 27  2  0  0  0
 27  1  1  0  0  0
  1  2  1  0  0  0
  2  3  2  0  0  0
  2  4  1  0  0  0
  4  7  1  0  0  0
  7  8  2  0  0  0
  8  9  1  0  0  0
  9 10  2  0  0  0
 10 14  1  0  0  0
 14 15  1  0  0  0
 15 16  2  0  0  0
 16 17  1  0  0  0
 17 21  1  0  0  0
 21 22  1  0  0  0
 17 18  2  0  0  0
 18 19  1  0  0  0
 19 20  2  0  0  0
 10 11  1  0  0  0
 11 12  2  0  0  0
 12 13  1  0  0  0
 27 28  1  0  0  0
 28 29  2  0  0  0
 29 30  1  0  0  0
 30 31  1  0  0  0
 30 32  1  0  0  0
 30 33  1  0  0  0
 38 39  1  0  0  0
 39 40  1  0  0  0
 40 35  1  0  0  0
 29 24  1  0  0  0
 12  7  1  0  0  0
 20 15  1  0  0  0
  1  5  1  0  0  0
  4  6  1  0  0  0
 21 23  1  0  0  0
M  END
> <minimizedAffinity>
-7.55643

> <CNNscore>
0.4425044656

> <CNNaffinity>
6.3712134361

> <CNN_VS>
2.8192903996

> <CNNaffinity_variance>
0.0691930354

$$$$
[H]c1nc(Oc2c([H])c([H])c(N([H])C(=O)N([H])c3c([H])c([H])c(C([H])([H])N4C([H])([H])C([H])([H])N(C([H])([H])C([H])([H])[H])C([H])([H])C4([H])[H])c(C(F)(F)F)c3[H])c(F)c2[H])c([H])c(N([H])C([H])([H])[H])n1


 42 45  0  0  0  0  0  0  0  0999 V2000
   60.3735   -6.2371   -8.5320 N   0  0  0  0  0  0  0  0  0  0  0  0
   59.1527   -5.7904   -9.0963 C   0  0  0  0  0  0  0  0  0  0  0  0
   58.8675   -6.0178  -10.2727 O   0  0  0  0  0  0  0  0  0  0  0  0
   58.2606   -5.0696   -8.2637 N   0  0  0  0  0  0  0  0  0  0  0  0
   60.5007   -5.9798   -7.5064 H   0  0  0  0  0  0  0  0  0  0  0  0
   58.5740   -4.9068   -7.2427 H   0  0  0  0  0  0  0  0  0  0  0  0
   57.0189   -4.5618   -8.6693 C   0  0  0  0  0  0  0  0  0  0  0  0
   56.4596   -4.6475   -9.9104 C   0  0  0  0  0  0  0  0  0  0  0  0
   55.1953   -4.1010  -10.2278 C   0  0  0  0  0  0  0  0  0  0  0  0
   54.5004   -3.4528   -9.2338 C   0  0  0  0  0  0  0  0  0  0  0  0
   55.0226   -3.3370   -7.9558 C   0  0  0  0  0  0  0  0  0  0  0  0
   56.2467   -3.8811   -7.6988 C   0  0  0  0  0  0  0  0  0  0  0  0
   56.7530   -3.7656   -6.4443 F   0  0  0  0  0  0  0  0  0  0  0  0
   53.2592   -2.9140   -9.5363 O   0  0  0  0  0  0  0  0  0  0  0  0
   52.2629   -2.9726   -8.5670 C   0  0  0  0  0  0  0  0  0  0  0  0
   52.1233   -4.1237   -7.8187 C   0  0  0  0  0  0  0  0  0  0  0  0
   51.1520   -4.2425   -6.8411 C   0  0  0  0  0  0  0  0  0  0  0  0
   50.3485   -3.1765   -6.6564 N   0  0  0  0  0  0  0  0  0  0  0  0
   50.4599   -2.0441   -7.3681 C   0  0  0  0  0  0  0  0  0  0  0  0
   51.4220   -1.9543   -8.3215 N   0  0  0  0  0  0  0  0  0  0  0  0
   51.0203   -5.4316   -6.0817 N   0  0  0  0  0  0  0  0  0  0  0  0
   51.4591   -5.4564   -4.7125 C   0  0  0  0  0  0  0  0  0  0  0  0
   50.6094   -6.2776   -6.5123 H   0  0  0  0  0  0  0  0  0  0  0  0
   63.3638   -8.5463  -10.4287 C   0  0  0  0  0  0  0  0  0  0  0  0
   62.7835   -8.8707   -9.2128 C   0  0  0  0  0  0  0  0  0  0  0  0
   61.8153   -8.1268   -8.5999 C   0  0  0  0  0  0  0  0  0  0  0  0
   61.3619   -6.9544   -9.2198 C   0  0  0  0  0  0  0  0  0  0  0  0
   61.9408   -6.6456  -10.4136 C   0  0  0  0  0  0  0  0  0  0  0  0
   62.9316   -7.3982  -11.0522 C   0  0  0  0  0  0  0  0  0  0  0  0
   63.4716   -6.9692  -12.3446 C   0  0  0  0  0  0  0  0  0  0  0  0
   64.7906   -6.6170  -12.3563 F   0  0  0  0  0  0  0  0  0  0  0  0
   62.8043   -5.7820  -12.7018 F   0  0  0  0  0  0  0  0  0  0  0  0
   63.1317   -7.8338  -13.3982 F   0  0  0  0  0  0  0  0  0  0  0  0
   64.4106   -9.3214  -11.0812 C   0  0  0  0  0  0  0  0  0  0  0  0
   63.4073  -13.3150  -11.1838 N   0  0  0  0  0  0  0  0  0  0  0  0
   62.4972  -12.3513  -11.7665 C   0  0  0  0  0  0  0  0  0  0  0  0
   62.7380  -10.9603  -11.2445 C   0  0  0  0  0  0  0  0  0  0  0  0
   63.9733  -10.4487  -11.8805 N   0  0  0  0  0  0  0  0  0  0  0  0
   64.9830  -11.5094  -11.8080 C   0  0  0  0  0  0  0  0  0  0  0  0
   64.6130  -12.5913  -10.8418 C   0  0  0  0  0  0  0  0  0  0  0  0
   61.4287  -14.0976   -9.9225 C   0  0  0  0  0  0  0  0  0  0  0  0
   62.9079  -13.8895   -9.9569 C   0  0  0  0  0  0  0  0  0  0  0  0
 41 42  1  0  0  0
 42 35  1  0  0  0
 35 36  1  0  0  0
 36 37  1  0  0  0
 37 38  1  0  0  0
 38 34  1  0  0  0
 34 24  1  0  0  0
 24 25  2  0  0  0
 25 26  1  0  0  0
 26 27  2  0  0  0
 27  1  1  0  0  0
  1  2  1  0  0  0
  2  3  2  0  0  0
  2  4  1  0  0  0
  4  7  1  0  0  0
  7  8  2  0  0  0
  8  9  1  0  0  0
  9 10  2  0  0  0
 10 14  1  0  0  0
 14 15  1  0  0  0
 15 16  2  0  0  0
 16 17  1  0  0  0
 17 21  1  0  0  0
 21 22  1  0  0  0
 17 18  2  0  0  0
 18 19  1  0  0  0
 19 20  2  0  0  0
 10 11  1  0  0  0
 11 12  2  0  0  0
 12 13  1  0  0  0
 27 28  1  0  0  0
 28 29  2  0  0  0
 29 30  1  0  0  0
 30 31  1  0  0  0
 30 32  1  0  0  0
 30 33  1  0  0  0
 38 39  1  0  0  0
 39 40  1  0  0  0
 40 35  1  0  0  0
 29 24  1  0  0  0
 12  7  1  0  0  0
 20 15  1  0  0  0
  1  5  1  0  0  0
  4  6  1  0  0  0
 21 23  1  0  0  0
M  END
> <minimizedAffinity>
-7.95419

> <CNNscore>
0.4348981380

> <CNNaffinity>
6.4197988510

> <CNN_VS>
2.7919585705

> <CNNaffinity_variance>
0.0222169664

$$$$
[H]c1nc(Oc2c([H])c([H])c(N([H])C(=O)N([H])c3c([H])c([H])c(C([H])([H])N4C([H])([H])C([H])([H])N(C([H])([H])C([H])([H])[H])C([H])([H])C4([H])[H])c(C(F)(F)F)c3[H])c(F)c2[H])c([H])c(N([H])C([H])([H])[H])n1


 42 45  0  0  0  0  0  0  0  0999 V2000
   60.4401   -6.4422   -8.4841 N   0  0  0  0  0  0  0  0  0  0  0  0
   59.2105   -6.0505   -9.0696 C   0  0  0  0  0  0  0  0  0  0  0  0
   58.8303   -6.5223  -10.1418 O   0  0  0  0  0  0  0  0  0  0  0  0
   58.4226   -5.0937   -8.3822 N   0  0  0  0  0  0  0  0  0  0  0  0
   60.6540   -5.9647   -7.5565 H   0  0  0  0  0  0  0  0  0  0  0  0
   58.8162   -4.7225   -7.4471 H   0  0  0  0  0  0  0  0  0  0  0  0
   57.1869   -4.6044   -8.8270 C   0  0  0  0  0  0  0  0  0  0  0  0
   56.8535   -4.2441  -10.0995 C   0  0  0  0  0  0  0  0  0  0  0  0
   55.5749   -3.7576  -10.4551 C   0  0  0  0  0  0  0  0  0  0  0  0
   54.6257   -3.6441   -9.4667 C   0  0  0  0  0  0  0  0  0  0  0  0
   54.9117   -3.9959   -8.1576 C   0  0  0  0  0  0  0  0  0  0  0  0
   56.1603   -4.4603   -7.8642 C   0  0  0  0  0  0  0  0  0  0  0  0
   56.4347   -4.8048   -6.5798 F   0  0  0  0  0  0  0  0  0  0  0  0
   53.3686   -3.1680   -9.8067 O   0  0  0  0  0  0  0  0  0  0  0  0
   52.4079   -3.0738   -8.8048 C   0  0  0  0  0  0  0  0  0  0  0  0
   52.1681   -4.1699   -8.0014 C   0  0  0  0  0  0  0  0  0  0  0  0
   51.2258   -4.1379   -6.9894 C   0  0  0  0  0  0  0  0  0  0  0  0
   50.5536   -2.9811   -6.8275 N   0  0  0  0  0  0  0  0  0  0  0  0
   50.7646   -1.8988   -7.5926 C   0  0  0  0  0  0  0  0  0  0  0  0
   51.6953   -1.9577   -8.5790 N   0  0  0  0  0  0  0  0  0  0  0  0
   50.9901   -5.2721   -6.1734 N   0  0  0  0  0  0  0  0  0  0  0  0
   51.8995   -5.5836   -5.1040 C   0  0  0  0  0  0  0  0  0  0  0  0
   50.1660   -5.8726   -6.3479 H   0  0  0  0  0  0  0  0  0  0  0  0
   63.1933   -9.0804  -10.3092 C   0  0  0  0  0  0  0  0  0  0  0  0
   63.0006   -7.7644  -10.6984 C   0  0  0  0  0  0  0  0  0  0  0  0
   62.1130   -6.9100  -10.1080 C   0  0  0  0  0  0  0  0  0  0  0  0
   61.3343   -7.3692   -9.0370 C   0  0  0  0  0  0  0  0  0  0  0  0
   61.5320   -8.6646   -8.6648 C   0  0  0  0  0  0  0  0  0  0  0  0
   62.4371   -9.5493   -9.2595 C   0  0  0  0  0  0  0  0  0  0  0  0
   62.5694  -10.9210   -8.7624 C   0  0  0  0  0  0  0  0  0  0  0  0
   63.8413  -11.4115   -8.6873 F   0  0  0  0  0  0  0  0  0  0  0  0
   61.9389  -11.7652   -9.6962 F   0  0  0  0  0  0  0  0  0  0  0  0
   61.8268  -11.1575   -7.5938 F   0  0  0  0  0  0  0  0  0  0  0  0
   64.1222  -10.0056  -10.9445 C   0  0  0  0  0  0  0  0  0  0  0  0
   65.0343  -12.2874  -14.2503 N   0  0  0  0  0  0  0  0  0  0  0  0
   63.6460  -11.9832  -13.9733 C   0  0  0  0  0  0  0  0  0  0  0  0
   63.4310  -11.5848  -12.5379 C   0  0  0  0  0  0  0  0  0  0  0  0
   63.9536  -10.2097  -12.3696 N   0  0  0  0  0  0  0  0  0  0  0  0
   65.2653  -10.1494  -13.0220 C   0  0  0  0  0  0  0  0  0  0  0  0
   65.8223  -11.5063  -13.3211 C   0  0  0  0  0  0  0  0  0  0  0  0
   66.6874  -14.1013  -14.5580 C   0  0  0  0  0  0  0  0  0  0  0  0
   65.3651  -13.6722  -14.0106 C   0  0  0  0  0  0  0  0  0  0  0  0
 41 42  1  0  0  0
 42 35  1  0  0  0
 35 36  1  0  0  0
 36 37  1  0  0  0
 37 38  1  0  0  0
 38 34  1  0  0  0
 34 24  1  0  0  0
 24 25  2  0  0  0
 25 26  1  0  0  0
 26 27  2  0  0  0
 27  1  1  0  0  0
  1  2  1  0  0  0
  2  3  2  0  0  0
  2  4  1  0  0  0
  4  7  1  0  0  0
  7  8  2  0  0  0
  8  9  1  0  0  0
  9 10  2  0  0  0
 10 14  1  0  0  0
 14 15  1  0  0  0
 15 16  2  0  0  0
 16 17  1  0  0  0
 17 21  1  0  0  0
 21 22  1  0  0  0
 17 18  2  0  0  0
 18 19  1  0  0  0
 19 20  2  0  0  0
 10 11  1  0  0  0
 11 12  2  0  0  0
 12 13  1  0  0  0
 27 28  1  0  0  0
 28 29  2  0  0  0
 29 30  1  0  0  0
 30 31  1  0  0  0
 30 32  1  0  0  0
 30 33  1  0  0  0
 38 39  1  0  0  0
 39 40  1  0  0  0
 40 35  1  0  0  0
 29 24  1  0  0  0
 12  7  1  0  0  0
 20 15  1  0  0  0
  1  5  1  0  0  0
  4  6  1  0  0  0
 21 23  1  0  0  0
M  END
> <minimizedAffinity>
-7.40130

> <CNNscore>
0.3377016187

> <CNNaffinity>
6.1795287132

> <CNN_VS>
2.0868368149

> <CNNaffinity_variance>
0.0486986972

$$$$
[H]c1nc(Oc2c([H])c([H])c(N([H])C(=O)N([H])c3c([H])c([H])c(C([H])([H])N4C([H])([H])C([H])([H])N(C([H])([H])C([H])([H])[H])C([H])([H])C4([H])[H])c(C(F)(F)F)c3[H])c(F)c2[H])c([H])c(N([H])C([H])([H])[H])n1


 42 45  0  0  0  0  0  0  0  0999 V2000
   60.1664   -6.3774   -8.6626 N   0  0  0  0  0  0  0  0  0  0  0  0
   58.8778   -5.9799   -9.0980 C   0  0  0  0  0  0  0  0  0  0  0  0
   58.4478   -6.2987  -10.2073 O   0  0  0  0  0  0  0  0  0  0  0  0
   58.0898   -5.1997   -8.2155 N   0  0  0  0  0  0  0  0  0  0  0  0
   60.4201   -6.0410   -7.6845 H   0  0  0  0  0  0  0  0  0  0  0  0
   58.5289   -4.9572   -7.2585 H   0  0  0  0  0  0  0  0  0  0  0  0
   56.7999   -4.7290   -8.4960 C   0  0  0  0  0  0  0  0  0  0  0  0
   56.3763   -4.1195   -9.6403 C   0  0  0  0  0  0  0  0  0  0  0  0
   55.0484   -3.6754   -9.8335 C   0  0  0  0  0  0  0  0  0  0  0  0
   54.1446   -3.8695   -8.8154 C   0  0  0  0  0  0  0  0  0  0  0  0
   54.5222   -4.4829   -7.6320 C   0  0  0  0  0  0  0  0  0  0  0  0
   55.8154   -4.8942   -7.4935 C   0  0  0  0  0  0  0  0  0  0  0  0
   56.1796   -5.4959   -6.3321 F   0  0  0  0  0  0  0  0  0  0  0  0
   52.8397   -3.4371   -8.9965 O   0  0  0  0  0  0  0  0  0  0  0  0
   51.9595   -3.5355   -7.9236 C   0  0  0  0  0  0  0  0  0  0  0  0
   52.0058   -4.6563   -7.1197 C   0  0  0  0  0  0  0  0  0  0  0  0
   51.1567   -4.8119   -6.0389 C   0  0  0  0  0  0  0  0  0  0  0  0
   50.2816   -3.8128   -5.8106 N   0  0  0  0  0  0  0  0  0  0  0  0
   50.2128   -2.7113   -6.5744 C   0  0  0  0  0  0  0  0  0  0  0  0
   51.0580   -2.5842   -7.6290 N   0  0  0  0  0  0  0  0  0  0  0  0
   51.2156   -5.9691   -5.2234 N   0  0  0  0  0  0  0  0  0  0  0  0
   52.2370   -6.0824   -4.2176 C   0  0  0  0  0  0  0  0  0  0  0  0
   50.5251   -6.7286   -5.3524 H   0  0  0  0  0  0  0  0  0  0  0  0
   62.9220   -8.5015  -11.0640 C   0  0  0  0  0  0  0  0  0  0  0  0
   62.6260   -7.1569  -11.2219 C   0  0  0  0  0  0  0  0  0  0  0  0
   61.7377   -6.4686  -10.4451 C   0  0  0  0  0  0  0  0  0  0  0  0
   61.0683   -7.1426   -9.4146 C   0  0  0  0  0  0  0  0  0  0  0  0
   61.3667   -8.4639   -9.2704 C   0  0  0  0  0  0  0  0  0  0  0  0
   62.2740   -9.1802  -10.0575 C   0  0  0  0  0  0  0  0  0  0  0  0
   62.5209  -10.6007   -9.7984 C   0  0  0  0  0  0  0  0  0  0  0  0
   63.8215  -10.9530   -9.5784 F   0  0  0  0  0  0  0  0  0  0  0  0
   62.1764  -11.3038  -10.9686 F   0  0  0  0  0  0  0  0  0  0  0  0
   61.6425  -11.1485   -8.8489 F   0  0  0  0  0  0  0  0  0  0  0  0
   63.8521   -9.2496  -11.8991 C   0  0  0  0  0  0  0  0  0  0  0  0
   66.6920   -6.3150  -12.4366 N   0  0  0  0  0  0  0  0  0  0  0  0
   66.6337   -7.0055  -11.1653 C   0  0  0  0  0  0  0  0  0  0  0  0
   65.3007   -7.6686  -10.9439 C   0  0  0  0  0  0  0  0  0  0  0  0
   65.2483   -8.8720  -11.8050 N   0  0  0  0  0  0  0  0  0  0  0  0
   65.7331   -8.4889  -13.1346 C   0  0  0  0  0  0  0  0  0  0  0  0
   65.7808   -7.0048  -13.3245 C   0  0  0  0  0  0  0  0  0  0  0  0
   65.0519   -4.6340  -13.2127 C   0  0  0  0  0  0  0  0  0  0  0  0
   66.2347   -4.9479  -12.3554 C   0  0  0  0  0  0  0  0  0  0  0  0
 41 42  1  0  0  0
 42 35  1  0  0  0
 35 36  1  0  0  0
 36 37  1  0  0  0
 37 38  1  0  0  0
 38 34  1  0  0  0
 34 24  1  0  0  0
 24 25  2  0  0  0
 25 26  1  0  0  0
 26 27  2  0  0  0
 27  1  1  0  0  0
  1  2  1  0  0  0
  2  3  2  0  0  0
  2  4  1  0  0  0
  4  7  1  0  0  0
  7  8  2  0  0  0
  8  9  1  0  0  0
  9 10  2  0  0  0
 10 14  1  0  0  0
 14 15  1  0  0  0
 15 16  2  0  0  0
 16 17  1  0  0  0
 17 21  1  0  0  0
 21 22  1  0  0  0
 17 18  2  0  0  0
 18 19  1  0  0  0
 19 20  2  0  0  0
 10 11  1  0  0  0
 11 12  2  0  0  0
 12 13  1  0  0  0
 27 28  1  0  0  0
 28 29  2  0  0  0
 29 30  1  0  0  0
 30 31  1  0  0  0
 30 32  1  0  0  0
 30 33  1  0  0  0
 38 39  1  0  0  0
 39 40  1  0  0  0
 40 35  1  0  0  0
 29 24  1  0  0  0
 12  7  1  0  0  0
 20 15  1  0  0  0
  1  5  1  0  0  0
  4  6  1  0  0  0
 21 23  1  0  0  0
M  END
> <minimizedAffinity>
-7.75406

> <CNNscore>
0.3062127829

> <CNNaffinity>
6.4413886070

> <CNN_VS>
1.9724354744

> <CNNaffinity_variance>
0.1118954048

$$$$
[H]c1nc(Oc2c([H])c([H])c(N([H])C(=O)N([H])c3c([H])c([H])c(C([H])([H])N4C([H])([H])C([H])([H])N(C([H])([H])C([H])([H])[H])C([H])([H])C4([H])[H])c(C(F)(F)F)c3[H])c(F)c2[H])c([H])c(N([H])C([H])([H])[H])n1


 42 45  0  0  0  0  0  0  0  0999 V2000
   61.0657   -7.1735   -8.5957 N   0  0  0  0  0  0  0  0  0  0  0  0
   59.8438   -6.7700   -9.1891 C   0  0  0  0  0  0  0  0  0  0  0  0
   59.3656   -7.3744  -10.1498 O   0  0  0  0  0  0  0  0  0  0  0  0
   59.1802   -5.6432   -8.6425 N   0  0  0  0  0  0  0  0  0  0  0  0
   61.3709   -6.5718   -7.7717 H   0  0  0  0  0  0  0  0  0  0  0  0
   59.6555   -5.1615   -7.8003 H   0  0  0  0  0  0  0  0  0  0  0  0
   57.9684   -5.1201   -9.1136 C   0  0  0  0  0  0  0  0  0  0  0  0
   57.6654   -4.7712  -10.3969 C   0  0  0  0  0  0  0  0  0  0  0  0
   56.4093   -4.2478  -10.7795 C   0  0  0  0  0  0  0  0  0  0  0  0
   55.4508   -4.0846   -9.8071 C   0  0  0  0  0  0  0  0  0  0  0  0
   55.7063   -4.4227   -8.4881 C   0  0  0  0  0  0  0  0  0  0  0  0
   56.9339   -4.9241   -8.1686 C   0  0  0  0  0  0  0  0  0  0  0  0
   57.1783   -5.2550   -6.8746 F   0  0  0  0  0  0  0  0  0  0  0  0
   54.2157   -3.5721  -10.1736 O   0  0  0  0  0  0  0  0  0  0  0  0
   53.2385   -3.4455   -9.1913 C   0  0  0  0  0  0  0  0  0  0  0  0
   53.0250   -4.4939   -8.3198 C   0  0  0  0  0  0  0  0  0  0  0  0
   52.0682   -4.4279   -7.3231 C   0  0  0  0  0  0  0  0  0  0  0  0
   51.3548   -3.2872   -7.2463 N   0  0  0  0  0  0  0  0  0  0  0  0
   51.5395   -2.2510   -8.0791 C   0  0  0  0  0  0  0  0  0  0  0  0
   52.4853   -2.3424   -9.0485 N   0  0  0  0  0  0  0  0  0  0  0  0
   51.8599   -5.5134   -6.4364 N   0  0  0  0  0  0  0  0  0  0  0  0
   50.7164   -6.3677   -6.6100 C   0  0  0  0  0  0  0  0  0  0  0  0
   52.5294   -5.6892   -5.6676 H   0  0  0  0  0  0  0  0  0  0  0  0
   63.3538  -10.5583   -9.6817 C   0  0  0  0  0  0  0  0  0  0  0  0
   62.5464  -10.4922   -8.5574 C   0  0  0  0  0  0  0  0  0  0  0  0
   61.8044   -9.4000   -8.2065 C   0  0  0  0  0  0  0  0  0  0  0  0
   61.8450   -8.2589   -9.0192 C   0  0  0  0  0  0  0  0  0  0  0  0
   62.6432   -8.3357  -10.1204 C   0  0  0  0  0  0  0  0  0  0  0  0
   63.4067   -9.4470  -10.4915 C   0  0  0  0  0  0  0  0  0  0  0  0
   64.2207   -9.4148  -11.7091 C   0  0  0  0  0  0  0  0  0  0  0  0
   65.5726   -9.4764  -11.5284 F   0  0  0  0  0  0  0  0  0  0  0  0
   64.0198   -8.1582  -12.3115 F   0  0  0  0  0  0  0  0  0  0  0  0
   63.7649  -10.2998  -12.7001 F   0  0  0  0  0  0  0  0  0  0  0  0
   64.1642  -11.7102  -10.0542 C   0  0  0  0  0  0  0  0  0  0  0  0
   63.2237  -15.0315  -12.3016 N   0  0  0  0  0  0  0  0  0  0  0  0
   63.7758  -15.2188  -10.9762 C   0  0  0  0  0  0  0  0  0  0  0  0
   64.4994  -13.9927  -10.4878 C   0  0  0  0  0  0  0  0  0  0  0  0
   63.4790  -12.9859  -10.1171 N   0  0  0  0  0  0  0  0  0  0  0  0
   62.4839  -12.9442  -11.1930 C   0  0  0  0  0  0  0  0  0  0  0  0
   62.9597  -13.6157  -12.4436 C   0  0  0  0  0  0  0  0  0  0  0  0
   63.5417  -16.1418  -14.4888 C   0  0  0  0  0  0  0  0  0  0  0  0
   64.1490  -15.3868  -13.3515 C   0  0  0  0  0  0  0  0  0  0  0  0
 41 42  1  0  0  0
 42 35  1  0  0  0
 35 36  1  0  0  0
 36 37  1  0  0  0
 37 38  1  0  0  0
 38 34  1  0  0  0
 34 24  1  0  0  0
 24 25  2  0  0  0
 25 26  1  0  0  0
 26 27  2  0  0  0
 27  1  1  0  0  0
  1  2  1  0  0  0
  2  3  2  0  0  0
  2  4  1  0  0  0
  4  7  1  0  0  0
  7  8  2  0  0  0
  8  9  1  0  0  0
  9 10  2  0  0  0
 10 14  1  0  0  0
 14 15  1  0  0  0
 15 16  2  0  0  0
 16 17  1  0  0  0
 17 21  1  0  0  0
 21 22  1  0  0  0
 17 18  2  0  0  0
 18 19  1  0  0  0
 19 20  2  0  0  0
 10 11  1  0  0  0
 11 12  2  0  0  0
 12 13  1  0  0  0
 27 28  1  0  0  0
 28 29  2  0  0  0
 29 30  1  0  0  0
 30 31  1  0  0  0
 30 32  1  0  0  0
 30 33  1  0  0  0
 38 39  1  0  0  0
 39 40  1  0  0  0
 40 35  1  0  0  0
 29 24  1  0  0  0
 12  7  1  0  0  0
 20 15  1  0  0  0
  1  5  1  0  0  0
  4  6  1  0  0  0
 21 23  1  0  0  0
M  END
> <minimizedAffinity>
-7.35339

> <CNNscore>
0.2681161165

> <CNNaffinity>
6.1393995285

> <CNN_VS>
1.6460719109

> <CNNaffinity_variance>
0.1070770845

$$$$
[H]c1nc(Oc2c([H])c([H])c(N([H])C(=O)N([H])c3c([H])c([H])c(C([H])([H])N4C([H])([H])C([H])([H])N(C([H])([H])C([H])([H])[H])C([H])([H])C4([H])[H])c(C(F)(F)F)c3[H])c(F)c2[H])c([H])c(N([H])C([H])([H])[H])n1


 42 45  0  0  0  0  0  0  0  0999 V2000
   54.5046   -3.8624   -9.9709 N   0  0  0  0  0  0  0  0  0  0  0  0
   55.7612   -4.0013  -10.6110 C   0  0  0  0  0  0  0  0  0  0  0  0
   56.7123   -4.5451  -10.0481 O   0  0  0  0  0  0  0  0  0  0  0  0
   55.8956   -3.4944  -11.9276 N   0  0  0  0  0  0  0  0  0  0  0  0
   53.7639   -3.3776  -10.5630 H   0  0  0  0  0  0  0  0  0  0  0  0
   55.0212   -3.0305  -12.3607 H   0  0  0  0  0  0  0  0  0  0  0  0
   57.0678   -3.5533  -12.6935 C   0  0  0  0  0  0  0  0  0  0  0  0
   58.3456   -3.6841  -12.2348 C   0  0  0  0  0  0  0  0  0  0  0  0
   59.4717   -3.7338  -13.0877 C   0  0  0  0  0  0  0  0  0  0  0  0
   59.2629   -3.6453  -14.4440 C   0  0  0  0  0  0  0  0  0  0  0  0
   57.9855   -3.5109  -14.9631 C   0  0  0  0  0  0  0  0  0  0  0  0
   56.9309   -3.4679  -14.0990 C   0  0  0  0  0  0  0  0  0  0  0  0
   55.6810   -3.3374  -14.6133 F   0  0  0  0  0  0  0  0  0  0  0  0
   60.3619   -3.6934  -15.2881 O   0  0  0  0  0  0  0  0  0  0  0  0
   61.6152   -3.4137  -14.7526 C   0  0  0  0  0  0  0  0  0  0  0  0
   62.4590   -4.4601  -14.4405 C   0  0  0  0  0  0  0  0  0  0  0  0
   63.7164   -4.2458  -13.9055 C   0  0  0  0  0  0  0  0  0  0  0  0
   64.0758   -2.9626  -13.7043 N   0  0  0  0  0  0  0  0  0  0  0  0
   63.2773   -1.9245  -13.9976 C   0  0  0  0  0  0  0  0  0  0  0  0
   62.0481   -2.1632  -14.5218 N   0  0  0  0  0  0  0  0  0  0  0  0
   64.5712   -5.3308  -13.5892 N   0  0  0  0  0  0  0  0  0  0  0  0
   65.9452   -5.3041  -14.0123 C   0  0  0  0  0  0  0  0  0  0  0  0
   64.2063   -6.1383  -13.0554 H   0  0  0  0  0  0  0  0  0  0  0  0
   53.8435   -5.2029   -6.0164 C   0  0  0  0  0  0  0  0  0  0  0  0
   55.0943   -4.9313   -6.5479 C   0  0  0  0  0  0  0  0  0  0  0  0
   55.3092   -4.4956   -7.8248 C   0  0  0  0  0  0  0  0  0  0  0  0
   54.2105   -4.3031   -8.6732 C   0  0  0  0  0  0  0  0  0  0  0  0
   52.9868   -4.5747   -8.1398 C   0  0  0  0  0  0  0  0  0  0  0  0
   52.7526   -5.0201   -6.8350 C   0  0  0  0  0  0  0  0  0  0  0  0
   51.3859   -5.2685   -6.3699 C   0  0  0  0  0  0  0  0  0  0  0  0
   51.0472   -6.5767   -6.1749 F   0  0  0  0  0  0  0  0  0  0  0  0
   50.5146   -4.8452   -7.3916 F   0  0  0  0  0  0  0  0  0  0  0  0
   51.0115   -4.4452   -5.2951 F   0  0  0  0  0  0  0  0  0  0  0  0
   53.6047   -5.6868   -4.6633 C   0  0  0  0  0  0  0  0  0  0  0  0
   56.1472   -8.4340   -2.9443 N   0  0  0  0  0  0  0  0  0  0  0  0
   54.7280   -8.5318   -2.6744 C   0  0  0  0  0  0  0  0  0  0  0  0
   54.0109   -7.2370   -2.9480 C   0  0  0  0  0  0  0  0  0  0  0  0
   53.9047   -7.0833   -4.4168 N   0  0  0  0  0  0  0  0  0  0  0  0
   55.2144   -7.4024   -4.9934 C   0  0  0  0  0  0  0  0  0  0  0  0
   56.3051   -7.4233   -3.9681 C   0  0  0  0  0  0  0  0  0  0  0  0
   56.5298   -6.6340   -1.2916 C   0  0  0  0  0  0  0  0  0  0  0  0
   56.9074   -7.9868   -1.8012 C   0  0  0  0  0  0  0  0  0  0  0  0
 41 42  1  0  0  0
 42 35  1  0  0  0
 35 36  1  0  0  0
 36 37  1  0  0  0
 37 38  1  0  0  0
 38 34  1  0  0  0
 34 24  1  0  0  0
 24 25  2  0  0  0
 25 26  1  0  0  0
 26 27  2  0  0  0
 27  1  1  0  0  0
  1  2  1  0  0  0
  2  3  2  0  0  0
  2  4  1  0  0  0
  4  7  1  0  0  0
  7  8  2  0  0  0
  8  9  1  0  0  0
  9 10  2  0  0  0
 10 14  1  0  0  0
 14 15  1  0  0  0
 15 16  2  0  0  0
 16 17  1  0  0  0
 17 21  1  0  0  0
 21 22  1  0  0  0
 17 18  2  0  0  0
 18 19  1  0  0  0
 19 20  2  0  0  0
 10 11  1  0  0  0
 11 12  2  0  0  0
 12 13  1  0  0  0
 27 28  1  0  0  0
 28 29  2  0  0  0
 29 30  1  0  0  0
 30 31  1  0  0  0
 30 32  1  0  0  0
 30 33  1  0  0  0
 38 39  1  0  0  0
 39 40  1  0  0  0
 40 35  1  0  0  0
 29 24  1  0  0  0
 12  7  1  0  0  0
 20 15  1  0  0  0
  1  5  1  0  0  0
  4  6  1  0  0  0
 21 23  1  0  0  0
M  END
> <minimizedAffinity>
-8.37070

> <CNNscore>
0.2654960155

> <CNNaffinity>
6.8124055862

> <CNN_VS>
1.8086665869

> <CNNaffinity_variance>
0.2650510371

$$$$
[H]c1nc(Oc2c([H])c([H])c(N([H])C(=O)N([H])c3c([H])c([H])c(C([H])([H])N4C([H])([H])C([H])([H])N(C([H])([H])C([H])([H])[H])C([H])([H])C4([H])[H])c(C(F)(F)F)c3[H])c(F)c2[H])c([H])c(N([H])C([H])([H])[H])n1


 42 45  0  0  0  0  0  0  0  0999 V2000
   55.1010   -3.8295  -10.4176 N   0  0  0  0  0  0  0  0  0  0  0  0
   56.3625   -3.9590  -11.0501 C   0  0  0  0  0  0  0  0  0  0  0  0
   57.3102   -4.5083  -10.4870 O   0  0  0  0  0  0  0  0  0  0  0  0
   56.5058   -3.4359  -12.3595 N   0  0  0  0  0  0  0  0  0  0  0  0
   54.3640   -3.3386  -11.0092 H   0  0  0  0  0  0  0  0  0  0  0  0
   55.6339   -2.9680  -12.7933 H   0  0  0  0  0  0  0  0  0  0  0  0
   57.6836   -3.4839  -13.1174 C   0  0  0  0  0  0  0  0  0  0  0  0
   58.9567   -3.6366  -12.6523 C   0  0  0  0  0  0  0  0  0  0  0  0
   60.0892   -3.6727  -13.4973 C   0  0  0  0  0  0  0  0  0  0  0  0
   59.8921   -3.5472  -14.8524 C   0  0  0  0  0  0  0  0  0  0  0  0
   58.6199   -3.3894  -15.3778 C   0  0  0  0  0  0  0  0  0  0  0  0
   57.5587   -3.3608  -14.5213 C   0  0  0  0  0  0  0  0  0  0  0  0
   56.3140   -3.2072  -15.0418 F   0  0  0  0  0  0  0  0  0  0  0  0
   60.9974   -3.5819  -15.6888 O   0  0  0  0  0  0  0  0  0  0  0  0
   61.4808   -4.8237  -16.0887 C   0  0  0  0  0  0  0  0  0  0  0  0
   62.4922   -5.4152  -15.3596 C   0  0  0  0  0  0  0  0  0  0  0  0
   63.0144   -6.6479  -15.7073 C   0  0  0  0  0  0  0  0  0  0  0  0
   62.4850   -7.2423  -16.7947 N   0  0  0  0  0  0  0  0  0  0  0  0
   61.5014   -6.6921  -17.5235 C   0  0  0  0  0  0  0  0  0  0  0  0
   61.0072   -5.4812  -17.1600 N   0  0  0  0  0  0  0  0  0  0  0  0
   64.0537   -7.2420  -14.9492 N   0  0  0  0  0  0  0  0  0  0  0  0
   63.8005   -7.6634  -13.5979 C   0  0  0  0  0  0  0  0  0  0  0  0
   64.9906   -7.3716  -15.3682 H   0  0  0  0  0  0  0  0  0  0  0  0
   54.4111   -5.2501   -6.4962 C   0  0  0  0  0  0  0  0  0  0  0  0
   55.6669   -5.1208   -7.0680 C   0  0  0  0  0  0  0  0  0  0  0  0
   55.8915   -4.6595   -8.3342 C   0  0  0  0  0  0  0  0  0  0  0  0
   54.7981   -4.2864   -9.1276 C   0  0  0  0  0  0  0  0  0  0  0  0
   53.5693   -4.4194   -8.5550 C   0  0  0  0  0  0  0  0  0  0  0  0
   53.3253   -4.8891   -7.2605 C   0  0  0  0  0  0  0  0  0  0  0  0
   51.9553   -4.9773   -6.7491 C   0  0  0  0  0  0  0  0  0  0  0  0
   51.2351   -6.0662   -7.1485 F   0  0  0  0  0  0  0  0  0  0  0  0
   51.2404   -3.8881   -7.2828 F   0  0  0  0  0  0  0  0  0  0  0  0
   51.8675   -4.7461   -5.3664 F   0  0  0  0  0  0  0  0  0  0  0  0
   54.1592   -5.7595   -5.1548 C   0  0  0  0  0  0  0  0  0  0  0  0
   55.6776   -7.2175   -1.6143 N   0  0  0  0  0  0  0  0  0  0  0  0
   55.8256   -8.0106   -2.8166 C   0  0  0  0  0  0  0  0  0  0  0  0
   54.8402   -7.6104   -3.8817 C   0  0  0  0  0  0  0  0  0  0  0  0
   55.2968   -6.3246   -4.4568 N   0  0  0  0  0  0  0  0  0  0  0  0
   55.6629   -5.4442   -3.3429 C   0  0  0  0  0  0  0  0  0  0  0  0
   55.1464   -5.9360   -2.0267 C   0  0  0  0  0  0  0  0  0  0  0  0
   53.4127   -7.0701   -0.6311 C   0  0  0  0  0  0  0  0  0  0  0  0
   54.7269   -7.7790   -0.6839 C   0  0  0  0  0  0  0  0  0  0  0  0
 41 42  1  0  0  0
 42 35  1  0  0  0
 35 36  1  0  0  0
 36 37  1  0  0  0
 37 38  1  0  0  0
 38 34  1  0  0  0
 34 24  1  0  0  0
 24 25  2  0  0  0
 25 26  1  0  0  0
 26 27  2  0  0  0
 27  1  1  0  0  0
  1  2  1  0  0  0
  2  3  2  0  0  0
  2  4  1  0  0  0
  4  7  1  0  0  0
  7  8  2  0  0  0
  8  9  1  0  0  0
  9 10  2  0  0  0
 10 14  1  0  0  0
 14 15  1  0  0  0
 15 16  2  0  0  0
 16 17  1  0  0  0
 17 21  1  0  0  0
 21 22  1  0  0  0
 17 18  2  0  0  0
 18 19  1  0  0  0
 19 20  2  0  0  0
 10 11  1  0  0  0
 11 12  2  0  0  0
 12 13  1  0  0  0
 27 28  1  0  0  0
 28 29  2  0  0  0
 29 30  1  0  0  0
 30 31  1  0  0  0
 30 32  1  0  0  0
 30 33  1  0  0  0
 38 39  1  0  0  0
 39 40  1  0  0  0
 40 35  1  0  0  0
 29 24  1  0  0  0
 12  7  1  0  0  0
 20 15  1  0  0  0
  1  5  1  0  0  0
  4  6  1  0  0  0
 21 23  1  0  0  0
M  END
> <minimizedAffinity>
-8.13757

> <CNNscore>
0.2533215582

> <CNNaffinity>
6.7463483810

> <CNN_VS>
1.7089954615

> <CNNaffinity_variance>
0.2977539003

$$$$
[H]c1nc(Oc2c([H])c([H])c(N([H])C(=O)N([H])c3c([H])c([H])c(C([H])([H])N4C([H])([H])C([H])([H])N(C([H])([H])C([H])([H])[H])C([H])([H])C4([H])[H])c(C(F)(F)F)c3[H])c(F)c2[H])c([H])c(N([H])C([H])([H])[H])n1


 42 45  0  0  0  0  0  0  0  0999 V2000
   60.6952   -6.4517   -8.8231 N   0  0  0  0  0  0  0  0  0  0  0  0
   59.3484   -6.1425   -9.1373 C   0  0  0  0  0  0  0  0  0  0  0  0
   58.8147   -6.5653  -10.1636 O   0  0  0  0  0  0  0  0  0  0  0  0
   58.6253   -5.3274   -8.2309 N   0  0  0  0  0  0  0  0  0  0  0  0
   61.0385   -6.0289   -7.9080 H   0  0  0  0  0  0  0  0  0  0  0  0
   59.1549   -4.9923   -7.3509 H   0  0  0  0  0  0  0  0  0  0  0  0
   57.2907   -4.9331   -8.3969 C   0  0  0  0  0  0  0  0  0  0  0  0
   56.7402   -4.3284   -9.4885 C   0  0  0  0  0  0  0  0  0  0  0  0
   55.3765   -3.9647   -9.5650 C   0  0  0  0  0  0  0  0  0  0  0  0
   54.5709   -4.2357   -8.4840 C   0  0  0  0  0  0  0  0  0  0  0  0
   55.0791   -4.8481   -7.3499 C   0  0  0  0  0  0  0  0  0  0  0  0
   56.4019   -5.1800   -7.3243 C   0  0  0  0  0  0  0  0  0  0  0  0
   56.8942   -5.7810   -6.2107 F   0  0  0  0  0  0  0  0  0  0  0  0
   53.2317   -3.8826   -8.5506 O   0  0  0  0  0  0  0  0  0  0  0  0
   52.3282   -4.5766   -7.7521 C   0  0  0  0  0  0  0  0  0  0  0  0
   51.5343   -3.8716   -6.8705 C   0  0  0  0  0  0  0  0  0  0  0  0
   50.6179   -4.5049   -6.0505 C   0  0  0  0  0  0  0  0  0  0  0  0
   50.5397   -5.8461   -6.1564 N   0  0  0  0  0  0  0  0  0  0  0  0
   51.2980   -6.5589   -7.0039 C   0  0  0  0  0  0  0  0  0  0  0  0
   52.1895   -5.9119   -7.7973 N   0  0  0  0  0  0  0  0  0  0  0  0
   49.8105   -3.7673   -5.1495 N   0  0  0  0  0  0  0  0  0  0  0  0
   49.0200   -2.6685   -5.6347 C   0  0  0  0  0  0  0  0  0  0  0  0
   49.7909   -4.0202   -4.1466 H   0  0  0  0  0  0  0  0  0  0  0  0
   63.2141   -8.9973  -11.0698 C   0  0  0  0  0  0  0  0  0  0  0  0
   62.4519   -9.4118   -9.9891 C   0  0  0  0  0  0  0  0  0  0  0  0
   61.6356   -8.5909   -9.2637 C   0  0  0  0  0  0  0  0  0  0  0  0
   61.5451   -7.2369   -9.6142 C   0  0  0  0  0  0  0  0  0  0  0  0
   62.2999   -6.8415  -10.6770 C   0  0  0  0  0  0  0  0  0  0  0  0
   63.1385   -7.6709  -11.4284 C   0  0  0  0  0  0  0  0  0  0  0  0
   63.8950   -7.1312  -12.5609 C   0  0  0  0  0  0  0  0  0  0  0  0
   65.2519   -7.2676  -12.4953 F   0  0  0  0  0  0  0  0  0  0  0  0
   63.6980   -5.7371  -12.5671 F   0  0  0  0  0  0  0  0  0  0  0  0
   63.3707   -7.5145  -13.8064 F   0  0  0  0  0  0  0  0  0  0  0  0
   64.1027   -9.8595  -11.8373 C   0  0  0  0  0  0  0  0  0  0  0  0
   64.3507  -13.2165  -14.2112 N   0  0  0  0  0  0  0  0  0  0  0  0
   63.1482  -12.9976  -13.4350 C   0  0  0  0  0  0  0  0  0  0  0  0
   63.3796  -12.0460  -12.2921 C   0  0  0  0  0  0  0  0  0  0  0  0
   63.4804  -10.6809  -12.8566 N   0  0  0  0  0  0  0  0  0  0  0  0
   64.3632  -10.7470  -14.0254 C   0  0  0  0  0  0  0  0  0  0  0  0
   65.1518  -12.0183  -14.0800 C   0  0  0  0  0  0  0  0  0  0  0  0
   64.3795  -15.5290  -13.3341 C   0  0  0  0  0  0  0  0  0  0  0  0
   65.1530  -14.3071  -13.7096 C   0  0  0  0  0  0  0  0  0  0  0  0
 41 42  1  0  0  0
 42 35  1  0  0  0
 35 36  1  0  0  0
 36 37  1  0  0  0
 37 38  1  0  0  0
 38 34  1  0  0  0
 34 24  1  0  0  0
 24 25  2  0  0  0
 25 26  1  0  0  0
 26 27  2  0  0  0
 27  1  1  0  0  0
  1  2  1  0  0  0
  2  3  2  0  0  0
  2  4  1  0  0  0
  4  7  1  0  0  0
  7  8  2  0  0  0
  8  9  1  0  0  0
  9 10  2  0  0  0
 10 14  1  0  0  0
 14 15  1  0  0  0
 15 16  2  0  0  0
 16 17  1  0  0  0
 17 21  1  0  0  0
 21 22  1  0  0  0
 17 18  2  0  0  0
 18 19  1  0  0  0
 19 20  2  0  0  0
 10 11  1  0  0  0
 11 12  2  0  0  0
 12 13  1  0  0  0
 27 28  1  0  0  0
 28 29  2  0  0  0
 29 30  1  0  0  0
 30 31  1  0  0  0
 30 32  1  0  0  0
 30 33  1  0  0  0
 38 39  1  0  0  0
 39 40  1  0  0  0
 40 35  1  0  0  0
 29 24  1  0  0  0
 12  7  1  0  0  0
 20 15  1  0  0  0
  1  5  1  0  0  0
  4  6  1  0  0  0
 21 23  1  0  0  0
M  END
> <minimizedAffinity>
-7.36543

> <CNNscore>
0.2469556183

> <CNNaffinity>
6.0241250992

> <CNN_VS>
1.4876915216

> <CNNaffinity_variance>
0.0644208118

$$$$
[H]c1nc(Oc2c([H])c([H])c(N([H])C(=O)N([H])c3c([H])c([H])c(C([H])([H])N4C([H])([H])C([H])([H])N(C([H])([H])C([H])([H])[H])C([H])([H])C4([H])[H])c(C(F)(F)F)c3[H])c(F)c2[H])c([H])c(N([H])C([H])([H])[H])n1


 42 45  0  0  0  0  0  0  0  0999 V2000
   54.5100   -3.8764   -9.8421 N   0  0  0  0  0  0  0  0  0  0  0  0
   55.7387   -4.0717  -10.5207 C   0  0  0  0  0  0  0  0  0  0  0  0
   56.6371   -4.7617  -10.0372 O   0  0  0  0  0  0  0  0  0  0  0  0
   55.9075   -3.4473  -11.7818 N   0  0  0  0  0  0  0  0  0  0  0  0
   53.8148   -3.2625  -10.3654 H   0  0  0  0  0  0  0  0  0  0  0  0
   55.0789   -2.8573  -12.1459 H   0  0  0  0  0  0  0  0  0  0  0  0
   57.0587   -3.5421  -12.5754 C   0  0  0  0  0  0  0  0  0  0  0  0
   58.3470   -3.6689  -12.1460 C   0  0  0  0  0  0  0  0  0  0  0  0
   59.4498   -3.7569  -13.0258 C   0  0  0  0  0  0  0  0  0  0  0  0
   59.2062   -3.7119  -14.3784 C   0  0  0  0  0  0  0  0  0  0  0  0
   57.9166   -3.5837  -14.8682 C   0  0  0  0  0  0  0  0  0  0  0  0
   56.8855   -3.5025  -13.9790 C   0  0  0  0  0  0  0  0  0  0  0  0
   55.6236   -3.3782  -14.4647 F   0  0  0  0  0  0  0  0  0  0  0  0
   60.2822   -3.7979  -15.2487 O   0  0  0  0  0  0  0  0  0  0  0  0
   60.0260   -3.7696  -16.6159 C   0  0  0  0  0  0  0  0  0  0  0  0
   59.9392   -2.5500  -17.2560 C   0  0  0  0  0  0  0  0  0  0  0  0
   59.6865   -2.4570  -18.6127 C   0  0  0  0  0  0  0  0  0  0  0  0
   59.5292   -3.6183  -19.2780 N   0  0  0  0  0  0  0  0  0  0  0  0
   59.6079   -4.8190  -18.6833 C   0  0  0  0  0  0  0  0  0  0  0  0
   59.8570   -4.8815  -17.3504 N   0  0  0  0  0  0  0  0  0  0  0  0
   59.5991   -1.1973  -19.2556 N   0  0  0  0  0  0  0  0  0  0  0  0
   58.9249   -0.1078  -18.6027 C   0  0  0  0  0  0  0  0  0  0  0  0
   60.0199   -1.0637  -20.1911 H   0  0  0  0  0  0  0  0  0  0  0  0
   53.7645   -5.5522   -6.0332 C   0  0  0  0  0  0  0  0  0  0  0  0
   55.0286   -5.3807   -6.5747 C   0  0  0  0  0  0  0  0  0  0  0  0
   55.2712   -4.8370   -7.8044 C   0  0  0  0  0  0  0  0  0  0  0  0
   54.1888   -4.4175   -8.5897 C   0  0  0  0  0  0  0  0  0  0  0  0
   52.9516   -4.5926   -8.0471 C   0  0  0  0  0  0  0  0  0  0  0  0
   52.6893   -5.1465   -6.7901 C   0  0  0  0  0  0  0  0  0  0  0  0
   51.3117   -5.2734   -6.3080 C   0  0  0  0  0  0  0  0  0  0  0  0
   50.8722   -6.5450   -6.0763 F   0  0  0  0  0  0  0  0  0  0  0  0
   50.4668   -4.8081   -7.3336 F   0  0  0  0  0  0  0  0  0  0  0  0
   51.0145   -4.3959   -5.2522 F   0  0  0  0  0  0  0  0  0  0  0  0
   53.4936   -6.1489   -4.7321 C   0  0  0  0  0  0  0  0  0  0  0  0
   54.8493   -7.0054   -0.9380 N   0  0  0  0  0  0  0  0  0  0  0  0
   55.3969   -7.7420   -2.0579 C   0  0  0  0  0  0  0  0  0  0  0  0
   54.5012   -7.6804   -3.2660 C   0  0  0  0  0  0  0  0  0  0  0  0
   54.6346   -6.3293   -3.8567 N   0  0  0  0  0  0  0  0  0  0  0  0
   54.5594   -5.3561   -2.7625 C   0  0  0  0  0  0  0  0  0  0  0  0
   54.0278   -5.9531   -1.4968 C   0  0  0  0  0  0  0  0  0  0  0  0
   52.5306   -7.4791   -0.2186 C   0  0  0  0  0  0  0  0  0  0  0  0
   53.9838   -7.8080   -0.1064 C   0  0  0  0  0  0  0  0  0  0  0  0
 41 42  1  0  0  0
 42 35  1  0  0  0
 35 36  1  0  0  0
 36 37  1  0  0  0
 37 38  1  0  0  0
 38 34  1  0  0  0
 34 24  1  0  0  0
 24 25  2  0  0  0
 25 26  1  0  0  0
 26 27  2  0  0  0
 27  1  1  0  0  0
  1  2  1  0  0  0
  2  3  2  0  0  0
  2  4  1  0  0  0
  4  7  1  0  0  0
  7  8  2  0  0  0
  8  9  1  0  0  0
  9 10  2  0  0  0
 10 14  1  0  0  0
 14 15  1  0  0  0
 15 16  2  0  0  0
 16 17  1  0  0  0
 17 21  1  0  0  0
 21 22  1  0  0  0
 17 18  2  0  0  0
 18 19  1  0  0  0
 19 20  2  0  0  0
 10 11  1  0  0  0
 11 12  2  0  0  0
 12 13  1  0  0  0
 27 28  1  0  0  0
 28 29  2  0  0  0
 29 30  1  0  0  0
 30 31  1  0  0  0
 30 32  1  0  0  0
 30 33  1  0  0  0
 38 39  1  0  0  0
 39 40  1  0  0  0
 40 35  1  0  0  0
 29 24  1  0  0  0
 12  7  1  0  0  0
 20 15  1  0  0  0
  1  5  1  0  0  0
  4  6  1  0  0  0
 21 23  1  0  0  0
M  END
> <minimizedAffinity>
-8.44632

> <CNNscore>
0.2443473935

> <CNNaffinity>
6.7325220108

> <CNN_VS>
1.6450742483

> <CNNaffinity_variance>
0.1407802701

$$$$
[H]c1nc(N([H])c2c([H])c([H])c(N3C([H])([H])C([H])([H])N([H])C([H])([H])C3([H])[H])c([H])c2OC([H])([H])[H])nc(N([H])c2c([H])c([H])c([H])c([H])c2S(=O)(=O)C([H])(C([H])([H])[H])C([H])([H])[H])c1Cl


 38 41  0  0  0  0  0  0  0  0999 V2000
   53.9678   -3.3061   -9.1221 C   0  0  0  0  0  0  0  0  0  0  0  0
   52.9960   -2.4121   -9.1850 N   0  0  0  0  0  0  0  0  0  0  0  0
   51.8927   -2.4887   -8.4668 C   0  0  0  0  0  0  0  0  0  0  0  0
   51.7269   -3.5443   -7.6034 C   0  0  0  0  0  0  0  0  0  0  0  0
   50.2953   -3.6625   -6.6579 Cl  0  0  0  0  0  0  0  0  0  0  0  0
   52.7154   -4.5396   -7.4774 C   0  0  0  0  0  0  0  0  0  0  0  0
   53.7680   -4.3524   -8.2451 N   0  0  0  0  0  0  0  0  0  0  0  0
   55.1679   -3.2902   -9.8587 N   0  0  0  0  0  0  0  0  0  0  0  0
   55.2357   -2.5946  -10.6884 H   0  0  0  0  0  0  0  0  0  0  0  0
   57.0499   -4.5103  -10.7866 C   0  0  0  0  0  0  0  0  0  0  0  0
   58.1809   -5.2721  -10.6327 C   0  0  0  0  0  0  0  0  0  0  0  0
   58.6475   -5.6390   -9.3931 C   0  0  0  0  0  0  0  0  0  0  0  0
   57.9504   -5.2228   -8.3001 C   0  0  0  0  0  0  0  0  0  0  0  0
   56.7904   -4.4427   -8.4328 C   0  0  0  0  0  0  0  0  0  0  0  0
   56.3117   -4.0681   -9.6595 C   0  0  0  0  0  0  0  0  0  0  0  0
   59.8106   -6.4232   -9.2499 N   0  0  0  0  0  0  0  0  0  0  0  0
   59.9545   -7.6171  -10.0791 C   0  0  0  0  0  0  0  0  0  0  0  0
   61.1374   -8.4352   -9.6284 C   0  0  0  0  0  0  0  0  0  0  0  0
   62.3361   -7.6207   -9.7154 N   0  0  0  0  0  0  0  0  0  0  0  0
   62.2538   -6.3999   -8.9753 C   0  0  0  0  0  0  0  0  0  0  0  0
   60.8950   -6.1488   -8.3455 C   0  0  0  0  0  0  0  0  0  0  0  0
   62.4692   -7.3932  -10.7399 H   0  0  0  0  0  0  0  0  0  0  0  0
   57.4997   -3.8059  -13.0563 C   0  0  0  0  0  0  0  0  0  0  0  0
   56.5799   -4.1406  -12.0316 O   0  0  0  0  0  0  0  0  0  0  0  0
   52.5078   -5.5917   -6.6117 N   0  0  0  0  0  0  0  0  0  0  0  0
   52.5599   -6.5662   -7.0411 H   0  0  0  0  0  0  0  0  0  0  0  0
   52.2173   -5.5519   -5.2371 C   0  0  0  0  0  0  0  0  0  0  0  0
   50.9803   -5.3127   -4.7266 C   0  0  0  0  0  0  0  0  0  0  0  0
   50.7507   -5.3255   -3.3593 C   0  0  0  0  0  0  0  0  0  0  0  0
   51.7609   -5.5801   -2.4651 C   0  0  0  0  0  0  0  0  0  0  0  0
   53.0024   -5.8187   -3.0030 C   0  0  0  0  0  0  0  0  0  0  0  0
   53.2718   -5.8152   -4.3359 C   0  0  0  0  0  0  0  0  0  0  0  0
   54.8859   -6.0983   -4.8693 S   0  0  0  0  0  0  0  0  0  0  0  0
   55.5114   -4.8440   -5.4767 O   0  0  0  0  0  0  0  0  0  0  0  0
   54.8271   -7.0600   -6.0545 O   0  0  0  0  0  0  0  0  0  0  0  0
   55.9447   -6.8646   -3.7017 C   0  0  0  0  0  0  0  0  0  0  0  0
   57.3126   -7.0134   -4.3867 C   0  0  0  0  0  0  0  0  0  0  0  0
   55.4431   -8.2798   -3.4890 C   0  0  0  0  0  0  0  0  0  0  0  0
 23 24  1  0  0  0
 24 10  1  0  0  0
 10 11  2  0  0  0
 11 12  1  0  0  0
 12 13  2  0  0  0
 13 14  1  0  0  0
 14 15  2  0  0  0
 15  8  1  0  0  0
  8  1  1  0  0  0
  1  2  2  0  0  0
  2  3  1  0  0  0
  3  4  2  0  0  0
  4  5  1  0  0  0
  4  6  1  0  0  0
  6 25  1  0  0  0
 25 27  1  0  0  0
 27 28  2  0  0  0
 28 29  1  0  0  0
 29 30  2  0  0  0
 30 31  1  0  0  0
 31 32  2  0  0  0
 32 33  1  0  0  0
 33 34  2  0  0  0
 33 35  2  0  0  0
 33 36  1  0  0  0
 36 37  1  0  0  0
 36 38  1  0  0  0
  6  7  2  0  0  0
 12 16  1  0  0  0
 16 17  1  0  0  0
 17 18  1  0  0  0
 18 19  1  0  0  0
 19 20  1  0  0  0
 20 21  1  0  0  0
 15 10  1  0  0  0
  7  1  1  0  0  0
 21 16  1  0  0  0
 32 27  1  0  0  0
  8  9  1  0  0  0
 25 26  1  0  0  0
 19 22  1  0  0  0
M  END
> <minimizedAffinity>
-9.48583

> <CNNscore>
0.9615083933

> <CNNaffinity>
8.1410341263

> <CNN_VS>
7.8276724815

> <CNNaffinity_variance>
0.0584469847

$$$$
[H]c1nc(N([H])c2c([H])c([H])c(N3C([H])([H])C([H])([H])N([H])C([H])([H])C3([H])[H])c([H])c2OC([H])([H])[H])nc(N([H])c2c([H])c([H])c([H])c([H])c2S(=O)(=O)C([H])(C([H])([H])[H])C([H])([H])[H])c1Cl


 38 41  0  0  0  0  0  0  0  0999 V2000
   54.2878   -3.4893   -9.2397 C   0  0  0  0  0  0  0  0  0  0  0  0
   53.2827   -2.6401   -9.3678 N   0  0  0  0  0  0  0  0  0  0  0  0
   52.1983   -2.6817   -8.6185 C   0  0  0  0  0  0  0  0  0  0  0  0
   52.0896   -3.6497   -7.6499 C   0  0  0  0  0  0  0  0  0  0  0  0
   50.6835   -3.7209   -6.6623 Cl  0  0  0  0  0  0  0  0  0  0  0  0
   53.1164   -4.5926   -7.4492 C   0  0  0  0  0  0  0  0  0  0  0  0
   54.1449   -4.4479   -8.2575 N   0  0  0  0  0  0  0  0  0  0  0  0
   55.4707   -3.5066  -10.0034 N   0  0  0  0  0  0  0  0  0  0  0  0
   55.5085   -2.8693  -10.8805 H   0  0  0  0  0  0  0  0  0  0  0  0
   57.3807   -4.7144  -10.8894 C   0  0  0  0  0  0  0  0  0  0  0  0
   58.5282   -5.4452  -10.7097 C   0  0  0  0  0  0  0  0  0  0  0  0
   59.0011   -5.7604   -9.4584 C   0  0  0  0  0  0  0  0  0  0  0  0
   58.2934   -5.3240   -8.3802 C   0  0  0  0  0  0  0  0  0  0  0  0
   57.1165   -4.5748   -8.5393 C   0  0  0  0  0  0  0  0  0  0  0  0
   56.6312   -4.2517   -9.7780 C   0  0  0  0  0  0  0  0  0  0  0  0
   60.1812   -6.5133   -9.2886 N   0  0  0  0  0  0  0  0  0  0  0  0
   60.2502   -7.8468   -9.8807 C   0  0  0  0  0  0  0  0  0  0  0  0
   61.4826   -8.5735   -9.4065 C   0  0  0  0  0  0  0  0  0  0  0  0
   62.6567   -7.8032   -9.7754 N   0  0  0  0  0  0  0  0  0  0  0  0
   62.6394   -6.4612   -9.2818 C   0  0  0  0  0  0  0  0  0  0  0  0
   61.3515   -6.0792   -8.5737 C   0  0  0  0  0  0  0  0  0  0  0  0
   62.6792   -7.7802  -10.8327 H   0  0  0  0  0  0  0  0  0  0  0  0
   57.7594   -3.7582  -13.0785 C   0  0  0  0  0  0  0  0  0  0  0  0
   56.9042   -4.3966  -12.1462 O   0  0  0  0  0  0  0  0  0  0  0  0
   52.9658   -5.5584   -6.4776 N   0  0  0  0  0  0  0  0  0  0  0  0
   51.9658   -5.8748   -6.2856 H   0  0  0  0  0  0  0  0  0  0  0  0
   53.9553   -6.1713   -5.6898 C   0  0  0  0  0  0  0  0  0  0  0  0
   55.2428   -6.3505   -6.0874 C   0  0  0  0  0  0  0  0  0  0  0  0
   56.1824   -6.9279   -5.2469 C   0  0  0  0  0  0  0  0  0  0  0  0
   55.8525   -7.3419   -3.9801 C   0  0  0  0  0  0  0  0  0  0  0  0
   54.5462   -7.1514   -3.5996 C   0  0  0  0  0  0  0  0  0  0  0  0
   53.5932   -6.5906   -4.3911 C   0  0  0  0  0  0  0  0  0  0  0  0
   51.9830   -6.4436   -3.7946 S   0  0  0  0  0  0  0  0  0  0  0  0
   51.6205   -7.5885   -2.8506 O   0  0  0  0  0  0  0  0  0  0  0  0
   51.0269   -6.6511   -4.9676 O   0  0  0  0  0  0  0  0  0  0  0  0
   51.5644   -4.8788   -3.1256 C   0  0  0  0  0  0  0  0  0  0  0  0
   52.1332   -4.8496   -1.6980 C   0  0  0  0  0  0  0  0  0  0  0  0
   50.0574   -4.8399   -2.9611 C   0  0  0  0  0  0  0  0  0  0  0  0
 23 24  1  0  0  0
 24 10  1  0  0  0
 10 11  2  0  0  0
 11 12  1  0  0  0
 12 13  2  0  0  0
 13 14  1  0  0  0
 14 15  2  0  0  0
 15  8  1  0  0  0
  8  1  1  0  0  0
  1  2  2  0  0  0
  2  3  1  0  0  0
  3  4  2  0  0  0
  4  5  1  0  0  0
  4  6  1  0  0  0
  6 25  1  0  0  0
 25 27  1  0  0  0
 27 28  2  0  0  0
 28 29  1  0  0  0
 29 30  2  0  0  0
 30 31  1  0  0  0
 31 32  2  0  0  0
 32 33  1  0  0  0
 33 34  2  0  0  0
 33 35  2  0  0  0
 33 36  1  0  0  0
 36 37  1  0  0  0
 36 38  1  0  0  0
  6  7  2  0  0  0
 12 16  1  0  0  0
 16 17  1  0  0  0
 17 18  1  0  0  0
 18 19  1  0  0  0
 19 20  1  0  0  0
 20 21  1  0  0  0
 15 10  1  0  0  0
  7  1  1  0  0  0
 21 16  1  0  0  0
 32 27  1  0  0  0
  8  9  1  0  0  0
 25 26  1  0  0  0
 19 22  1  0  0  0
M  END
> <minimizedAffinity>
-8.51204

> <CNNscore>
0.8988458514

> <CNNaffinity>
8.0801019669

> <CNN_VS>
7.2627663612

> <CNNaffinity_variance>
0.0329248607

$$$$
[H]c1nc(N([H])c2c([H])c([H])c(N3C([H])([H])C([H])([H])N([H])C([H])([H])C3([H])[H])c([H])c2OC([H])([H])[H])nc(N([H])c2c([H])c([H])c([H])c([H])c2S(=O)(=O)C([H])(C([H])([H])[H])C([H])([H])[H])c1Cl


 38 41  0  0  0  0  0  0  0  0999 V2000
   53.9895   -3.4044   -8.8858 C   0  0  0  0  0  0  0  0  0  0  0  0
   52.8910   -2.6894   -9.0576 N   0  0  0  0  0  0  0  0  0  0  0  0
   51.8143   -2.8228   -8.3079 C   0  0  0  0  0  0  0  0  0  0  0  0
   51.8157   -3.7467   -7.2913 C   0  0  0  0  0  0  0  0  0  0  0  0
   50.4216   -3.9360   -6.3023 Cl  0  0  0  0  0  0  0  0  0  0  0  0
   52.9466   -4.5484   -7.0422 C   0  0  0  0  0  0  0  0  0  0  0  0
   53.9558   -4.3224   -7.8562 N   0  0  0  0  0  0  0  0  0  0  0  0
   55.1712   -3.3184   -9.6469 N   0  0  0  0  0  0  0  0  0  0  0  0
   55.2069   -2.5696  -10.4311 H   0  0  0  0  0  0  0  0  0  0  0  0
   56.9896   -4.5343  -10.6988 C   0  0  0  0  0  0  0  0  0  0  0  0
   58.1350   -5.2861  -10.6211 C   0  0  0  0  0  0  0  0  0  0  0  0
   58.6944   -5.6366   -9.4157 C   0  0  0  0  0  0  0  0  0  0  0  0
   58.0762   -5.2142   -8.2785 C   0  0  0  0  0  0  0  0  0  0  0  0
   56.9033   -4.4440   -8.3331 C   0  0  0  0  0  0  0  0  0  0  0  0
   56.3327   -4.0857   -9.5249 C   0  0  0  0  0  0  0  0  0  0  0  0
   59.8712   -6.4107   -9.3507 N   0  0  0  0  0  0  0  0  0  0  0  0
   59.9267   -7.6616  -10.1029 C   0  0  0  0  0  0  0  0  0  0  0  0
   61.1586   -8.4475   -9.7332 C   0  0  0  0  0  0  0  0  0  0  0  0
   62.3343   -7.6437  -10.0154 N   0  0  0  0  0  0  0  0  0  0  0  0
   62.3296   -6.3726   -9.3604 C   0  0  0  0  0  0  0  0  0  0  0  0
   61.0503   -6.0739   -8.5987 C   0  0  0  0  0  0  0  0  0  0  0  0
   62.3478   -7.4910  -11.0620 H   0  0  0  0  0  0  0  0  0  0  0  0
   57.2656   -3.8691  -13.0077 C   0  0  0  0  0  0  0  0  0  0  0  0
   56.4263   -4.1811  -11.9095 O   0  0  0  0  0  0  0  0  0  0  0  0
   52.9061   -5.4750   -6.0228 N   0  0  0  0  0  0  0  0  0  0  0  0
   51.9383   -5.7025   -5.6376 H   0  0  0  0  0  0  0  0  0  0  0  0
   53.9751   -6.1491   -5.4077 C   0  0  0  0  0  0  0  0  0  0  0  0
   55.1738   -6.3816   -6.0052 C   0  0  0  0  0  0  0  0  0  0  0  0
   56.2035   -7.0189   -5.3299 C   0  0  0  0  0  0  0  0  0  0  0  0
   56.0561   -7.4409   -4.0317 C   0  0  0  0  0  0  0  0  0  0  0  0
   54.8368   -7.1959   -3.4480 C   0  0  0  0  0  0  0  0  0  0  0  0
   53.8006   -6.5754   -4.0730 C   0  0  0  0  0  0  0  0  0  0  0  0
   52.3133   -6.3636   -3.2287 S   0  0  0  0  0  0  0  0  0  0  0  0
   51.1071   -6.5607   -4.1451 O   0  0  0  0  0  0  0  0  0  0  0  0
   52.2044   -4.8930   -2.8308 O   0  0  0  0  0  0  0  0  0  0  0  0
   52.1589   -7.2622   -1.7319 C   0  0  0  0  0  0  0  0  0  0  0  0
   50.6623   -7.2700   -1.3815 C   0  0  0  0  0  0  0  0  0  0  0  0
   52.8256   -6.4492   -0.6393 C   0  0  0  0  0  0  0  0  0  0  0  0
 23 24  1  0  0  0
 24 10  1  0  0  0
 10 11  2  0  0  0
 11 12  1  0  0  0
 12 13  2  0  0  0
 13 14  1  0  0  0
 14 15  2  0  0  0
 15  8  1  0  0  0
  8  1  1  0  0  0
  1  2  2  0  0  0
  2  3  1  0  0  0
  3  4  2  0  0  0
  4  5  1  0  0  0
  4  6  1  0  0  0
  6 25  1  0  0  0
 25 27  1  0  0  0
 27 28  2  0  0  0
 28 29  1  0  0  0
 29 30  2  0  0  0
 30 31  1  0  0  0
 31 32  2  0  0  0
 32 33  1  0  0  0
 33 34  2  0  0  0
 33 35  2  0  0  0
 33 36  1  0  0  0
 36 37  1  0  0  0
 36 38  1  0  0  0
  6  7  2  0  0  0
 12 16  1  0  0  0
 16 17  1  0  0  0
 17 18  1  0  0  0
 18 19  1  0  0  0
 19 20  1  0  0  0
 20 21  1  0  0  0
 15 10  1  0  0  0
  7  1  1  0  0  0
 21 16  1  0  0  0
 32 27  1  0  0  0
  8  9  1  0  0  0
 25 26  1  0  0  0
 19 22  1  0  0  0
M  END
> <minimizedAffinity>
-8.50977

> <CNNscore>
0.8856049776

> <CNNaffinity>
8.0537214279

> <CNN_VS>
7.1324157715

> <CNNaffinity_variance>
0.0294161085

$$$$
[H]c1nc(N([H])c2c([H])c([H])c(N3C([H])([H])C([H])([H])N([H])C([H])([H])C3([H])[H])c([H])c2OC([H])([H])[H])nc(N([H])c2c([H])c([H])c([H])c([H])c2S(=O)(=O)C([H])(C([H])([H])[H])C([H])([H])[H])c1Cl


 38 41  0  0  0  0  0  0  0  0999 V2000
   53.9029   -3.3202   -8.9279 C   0  0  0  0  0  0  0  0  0  0  0  0
   52.8062   -2.5972   -9.0759 N   0  0  0  0  0  0  0  0  0  0  0  0
   51.6788   -2.8514   -8.4407 C   0  0  0  0  0  0  0  0  0  0  0  0
   51.6221   -3.9179   -7.5768 C   0  0  0  0  0  0  0  0  0  0  0  0
   50.1613   -4.2663   -6.7387 Cl  0  0  0  0  0  0  0  0  0  0  0  0
   52.7469   -4.7381   -7.3630 C   0  0  0  0  0  0  0  0  0  0  0  0
   53.8101   -4.3831   -8.0530 N   0  0  0  0  0  0  0  0  0  0  0  0
   55.1367   -3.1101   -9.5733 N   0  0  0  0  0  0  0  0  0  0  0  0
   55.2408   -2.2115  -10.1720 H   0  0  0  0  0  0  0  0  0  0  0  0
   56.7461   -4.4046   -8.2981 C   0  0  0  0  0  0  0  0  0  0  0  0
   57.8562   -5.2085   -8.2290 C   0  0  0  0  0  0  0  0  0  0  0  0
   58.5553   -5.5810   -9.3520 C   0  0  0  0  0  0  0  0  0  0  0  0
   58.1150   -5.1268  -10.5577 C   0  0  0  0  0  0  0  0  0  0  0  0
   56.9817   -4.3032  -10.6532 C   0  0  0  0  0  0  0  0  0  0  0  0
   56.2734   -3.9227   -9.5451 C   0  0  0  0  0  0  0  0  0  0  0  0
   59.6952   -6.4066   -9.2659 N   0  0  0  0  0  0  0  0  0  0  0  0
   59.7682   -7.5879  -10.1221 C   0  0  0  0  0  0  0  0  0  0  0  0
   60.9377   -8.4542   -9.7302 C   0  0  0  0  0  0  0  0  0  0  0  0
   62.1598   -7.6789   -9.8455 N   0  0  0  0  0  0  0  0  0  0  0  0
   62.1460   -6.4712   -9.0800 C   0  0  0  0  0  0  0  0  0  0  0  0
   60.8200   -6.1870   -8.3966 C   0  0  0  0  0  0  0  0  0  0  0  0
   62.2640   -7.4355  -10.8696 H   0  0  0  0  0  0  0  0  0  0  0  0
   56.6745   -3.2344   -6.1827 C   0  0  0  0  0  0  0  0  0  0  0  0
   56.0423   -4.0296   -7.1704 O   0  0  0  0  0  0  0  0  0  0  0  0
   52.6483   -5.8080   -6.4999 N   0  0  0  0  0  0  0  0  0  0  0  0
   52.7991   -6.7710   -6.9318 H   0  0  0  0  0  0  0  0  0  0  0  0
   52.3564   -5.8014   -5.1251 C   0  0  0  0  0  0  0  0  0  0  0  0
   51.2091   -5.3033   -4.5923 C   0  0  0  0  0  0  0  0  0  0  0  0
   50.9634   -5.3620   -3.2290 C   0  0  0  0  0  0  0  0  0  0  0  0
   51.8665   -5.9249   -2.3614 C   0  0  0  0  0  0  0  0  0  0  0  0
   53.0186   -6.4215   -2.9215 C   0  0  0  0  0  0  0  0  0  0  0  0
   53.3001   -6.3841   -4.2513 C   0  0  0  0  0  0  0  0  0  0  0  0
   54.8022   -7.0159   -4.8119 S   0  0  0  0  0  0  0  0  0  0  0  0
   54.7383   -7.4081   -6.2869 O   0  0  0  0  0  0  0  0  0  0  0  0
   55.0401   -8.3525   -4.1121 O   0  0  0  0  0  0  0  0  0  0  0  0
   56.2144   -6.0437   -4.4481 C   0  0  0  0  0  0  0  0  0  0  0  0
   57.3897   -7.0228   -4.2975 C   0  0  0  0  0  0  0  0  0  0  0  0
   56.0121   -5.4402   -3.0718 C   0  0  0  0  0  0  0  0  0  0  0  0
 23 24  1  0  0  0
 24 10  1  0  0  0
 10 11  2  0  0  0
 11 12  1  0  0  0
 12 13  2  0  0  0
 13 14  1  0  0  0
 14 15  2  0  0  0
 15  8  1  0  0  0
  8  1  1  0  0  0
  1  2  2  0  0  0
  2  3  1  0  0  0
  3  4  2  0  0  0
  4  5  1  0  0  0
  4  6  1  0  0  0
  6 25  1  0  0  0
 25 27  1  0  0  0
 27 28  2  0  0  0
 28 29  1  0  0  0
 29 30  2  0  0  0
 30 31  1  0  0  0
 31 32  2  0  0  0
 32 33  1  0  0  0
 33 34  2  0  0  0
 33 35  2  0  0  0
 33 36  1  0  0  0
 36 37  1  0  0  0
 36 38  1  0  0  0
  6  7  2  0  0  0
 12 16  1  0  0  0
 16 17  1  0  0  0
 17 18  1  0  0  0
 18 19  1  0  0  0
 19 20  1  0  0  0
 20 21  1  0  0  0
 15 10  1  0  0  0
  7  1  1  0  0  0
 21 16  1  0  0  0
 32 27  1  0  0  0
  8  9  1  0  0  0
 25 26  1  0  0  0
 19 22  1  0  0  0
M  END
> <minimizedAffinity>
-8.45800

> <CNNscore>
0.8758263588

> <CNNaffinity>
7.9883832932

> <CNN_VS>
6.9964365959

> <CNNaffinity_variance>
0.0672229007

$$$$
[H]c1nc(N([H])c2c([H])c([H])c(N3C([H])([H])C([H])([H])N([H])C([H])([H])C3([H])[H])c([H])c2OC([H])([H])[H])nc(N([H])c2c([H])c([H])c([H])c([H])c2S(=O)(=O)C([H])(C([H])([H])[H])C([H])([H])[H])c1Cl


 38 41  0  0  0  0  0  0  0  0999 V2000
   54.5888   -4.2391   -8.7944 C   0  0  0  0  0  0  0  0  0  0  0  0
   53.9902   -3.1006   -9.0995 N   0  0  0  0  0  0  0  0  0  0  0  0
   52.8013   -2.7608   -8.6412 C   0  0  0  0  0  0  0  0  0  0  0  0
   52.1354   -3.6211   -7.8024 C   0  0  0  0  0  0  0  0  0  0  0  0
   50.5839   -3.1966   -7.1939 Cl  0  0  0  0  0  0  0  0  0  0  0  0
   52.7041   -4.8542   -7.4287 C   0  0  0  0  0  0  0  0  0  0  0  0
   53.8916   -5.0787   -7.9500 N   0  0  0  0  0  0  0  0  0  0  0  0
   55.8513   -4.6679   -9.2471 N   0  0  0  0  0  0  0  0  0  0  0  0
   56.4238   -5.3154   -8.5914 H   0  0  0  0  0  0  0  0  0  0  0  0
   57.8525   -4.6882  -10.6206 C   0  0  0  0  0  0  0  0  0  0  0  0
   58.5059   -4.4111  -11.7951 C   0  0  0  0  0  0  0  0  0  0  0  0
   57.8705   -3.8140  -12.8574 C   0  0  0  0  0  0  0  0  0  0  0  0
   56.5538   -3.4971  -12.7172 C   0  0  0  0  0  0  0  0  0  0  0  0
   55.8643   -3.7709  -11.5250 C   0  0  0  0  0  0  0  0  0  0  0  0
   56.4815   -4.3652  -10.4571 C   0  0  0  0  0  0  0  0  0  0  0  0
   58.5548   -3.5340  -14.0581 N   0  0  0  0  0  0  0  0  0  0  0  0
   60.0142   -3.5953  -14.0609 C   0  0  0  0  0  0  0  0  0  0  0  0
   60.5645   -3.0517  -15.3546 C   0  0  0  0  0  0  0  0  0  0  0  0
   60.0310   -3.8290  -16.4587 N   0  0  0  0  0  0  0  0  0  0  0  0
   58.6019   -3.8681  -16.4936 C   0  0  0  0  0  0  0  0  0  0  0  0
   57.9355   -3.1894  -15.3099 C   0  0  0  0  0  0  0  0  0  0  0  0
   60.3988   -4.8132  -16.3368 H   0  0  0  0  0  0  0  0  0  0  0  0
   59.7555   -5.8960   -9.7432 C   0  0  0  0  0  0  0  0  0  0  0  0
   58.4897   -5.2884   -9.5522 O   0  0  0  0  0  0  0  0  0  0  0  0
   52.0001   -5.6980   -6.5970 N   0  0  0  0  0  0  0  0  0  0  0  0
   51.6600   -6.6084   -7.0357 H   0  0  0  0  0  0  0  0  0  0  0  0
   51.6530   -5.5108   -5.2479 C   0  0  0  0  0  0  0  0  0  0  0  0
   50.4498   -5.0360   -4.8298 C   0  0  0  0  0  0  0  0  0  0  0  0
   50.1542   -4.9111   -3.4809 C   0  0  0  0  0  0  0  0  0  0  0  0
   51.0625   -5.2612   -2.5127 C   0  0  0  0  0  0  0  0  0  0  0  0
   52.2716   -5.7381   -2.9579 C   0  0  0  0  0  0  0  0  0  0  0  0
   52.6031   -5.8762   -4.2694 C   0  0  0  0  0  0  0  0  0  0  0  0
   54.1714   -6.4573   -4.6847 S   0  0  0  0  0  0  0  0  0  0  0  0
   54.1271   -7.4054   -5.8816 O   0  0  0  0  0  0  0  0  0  0  0  0
   54.6535   -7.3598   -3.5506 O   0  0  0  0  0  0  0  0  0  0  0  0
   55.4105   -5.2303   -4.8602 C   0  0  0  0  0  0  0  0  0  0  0  0
   56.5295   -5.8596   -5.7053 C   0  0  0  0  0  0  0  0  0  0  0  0
   56.0202   -4.9968   -3.4916 C   0  0  0  0  0  0  0  0  0  0  0  0
 23 24  1  0  0  0
 24 10  1  0  0  0
 10 11  2  0  0  0
 11 12  1  0  0  0
 12 13  2  0  0  0
 13 14  1  0  0  0
 14 15  2  0  0  0
 15  8  1  0  0  0
  8  1  1  0  0  0
  1  2  2  0  0  0
  2  3  1  0  0  0
  3  4  2  0  0  0
  4  5  1  0  0  0
  4  6  1  0  0  0
  6 25  1  0  0  0
 25 27  1  0  0  0
 27 28  2  0  0  0
 28 29  1  0  0  0
 29 30  2  0  0  0
 30 31  1  0  0  0
 31 32  2  0  0  0
 32 33  1  0  0  0
 33 34  2  0  0  0
 33 35  2  0  0  0
 33 36  1  0  0  0
 36 37  1  0  0  0
 36 38  1  0  0  0
  6  7  2  0  0  0
 12 16  1  0  0  0
 16 17  1  0  0  0
 17 18  1  0  0  0
 18 19  1  0  0  0
 19 20  1  0  0  0
 20 21  1  0  0  0
 15 10  1  0  0  0
  7  1  1  0  0  0
 21 16  1  0  0  0
 32 27  1  0  0  0
  8  9  1  0  0  0
 25 26  1  0  0  0
 19 22  1  0  0  0
M  END
> <minimizedAffinity>
-8.78032

> <CNNscore>
0.6014638543

> <CNNaffinity>
7.5374937057

> <CNN_VS>
4.5335302353

> <CNNaffinity_variance>
0.0226851758

$$$$
[H]c1nc(N([H])c2c([H])c([H])c(N3C([H])([H])C([H])([H])N([H])C([H])([H])C3([H])[H])c([H])c2OC([H])([H])[H])nc(N([H])c2c([H])c([H])c([H])c([H])c2S(=O)(=O)C([H])(C([H])([H])[H])C([H])([H])[H])c1Cl


 38 41  0  0  0  0  0  0  0  0999 V2000
   53.9571   -4.2023   -8.1274 C   0  0  0  0  0  0  0  0  0  0  0  0
   52.6982   -3.8134   -8.2360 N   0  0  0  0  0  0  0  0  0  0  0  0
   51.7463   -4.1987   -7.4087 C   0  0  0  0  0  0  0  0  0  0  0  0
   52.0597   -5.0474   -6.3749 C   0  0  0  0  0  0  0  0  0  0  0  0
   50.8327   -5.5616   -5.2851 Cl  0  0  0  0  0  0  0  0  0  0  0  0
   53.3777   -5.5081   -6.1897 C   0  0  0  0  0  0  0  0  0  0  0  0
   54.2359   -5.0541   -7.0783 N   0  0  0  0  0  0  0  0  0  0  0  0
   55.0219   -3.8350   -8.9725 N   0  0  0  0  0  0  0  0  0  0  0  0
   54.8491   -3.0216   -9.6691 H   0  0  0  0  0  0  0  0  0  0  0  0
   56.8743   -4.6630  -10.3046 C   0  0  0  0  0  0  0  0  0  0  0  0
   58.1312   -5.2037  -10.4091 C   0  0  0  0  0  0  0  0  0  0  0  0
   58.8881   -5.5037   -9.3019 C   0  0  0  0  0  0  0  0  0  0  0  0
   58.3543   -5.2481   -8.0757 C   0  0  0  0  0  0  0  0  0  0  0  0
   57.0702   -4.6952   -7.9440 C   0  0  0  0  0  0  0  0  0  0  0  0
   56.3027   -4.3902   -9.0359 C   0  0  0  0  0  0  0  0  0  0  0  0
   60.1779   -6.0603   -9.4241 N   0  0  0  0  0  0  0  0  0  0  0  0
   60.8497   -5.9887  -10.7191 C   0  0  0  0  0  0  0  0  0  0  0  0
   62.1038   -6.8247  -10.7119 C   0  0  0  0  0  0  0  0  0  0  0  0
   62.9870   -6.3428   -9.6652 N   0  0  0  0  0  0  0  0  0  0  0  0
   62.3829   -6.3257   -8.3692 C   0  0  0  0  0  0  0  0  0  0  0  0
   60.9121   -6.7032   -8.3673 C   0  0  0  0  0  0  0  0  0  0  0  0
   63.2559   -5.3552   -9.9321 H   0  0  0  0  0  0  0  0  0  0  0  0
   56.7258   -3.7583  -12.5428 C   0  0  0  0  0  0  0  0  0  0  0  0
   56.1125   -4.3608  -11.4164 O   0  0  0  0  0  0  0  0  0  0  0  0
   53.6517   -6.3703   -5.1500 N   0  0  0  0  0  0  0  0  0  0  0  0
   52.8197   -6.9126   -4.7623 H   0  0  0  0  0  0  0  0  0  0  0  0
   54.8822   -6.6180   -4.5175 C   0  0  0  0  0  0  0  0  0  0  0  0
   56.0517   -6.8220   -5.1799 C   0  0  0  0  0  0  0  0  0  0  0  0
   57.2411   -7.0227   -4.4960 C   0  0  0  0  0  0  0  0  0  0  0  0
   57.2876   -7.0237   -3.1239 C   0  0  0  0  0  0  0  0  0  0  0  0
   56.0943   -6.8160   -2.4754 C   0  0  0  0  0  0  0  0  0  0  0  0
   54.9062   -6.6159   -3.1058 C   0  0  0  0  0  0  0  0  0  0  0  0
   53.4791   -6.4012   -2.1639 S   0  0  0  0  0  0  0  0  0  0  0  0
   52.6236   -5.2475   -2.6841 O   0  0  0  0  0  0  0  0  0  0  0  0
   53.8997   -5.9176   -0.7775 O   0  0  0  0  0  0  0  0  0  0  0  0
   52.5333   -7.8498   -1.8831 C   0  0  0  0  0  0  0  0  0  0  0  0
   51.0949   -7.3836   -1.6068 C   0  0  0  0  0  0  0  0  0  0  0  0
   53.0150   -8.4660   -0.5841 C   0  0  0  0  0  0  0  0  0  0  0  0
 23 24  1  0  0  0
 24 10  1  0  0  0
 10 11  2  0  0  0
 11 12  1  0  0  0
 12 13  2  0  0  0
 13 14  1  0  0  0
 14 15  2  0  0  0
 15  8  1  0  0  0
  8  1  1  0  0  0
  1  2  2  0  0  0
  2  3  1  0  0  0
  3  4  2  0  0  0
  4  5  1  0  0  0
  4  6  1  0  0  0
  6 25  1  0  0  0
 25 27  1  0  0  0
 27 28  2  0  0  0
 28 29  1  0  0  0
 29 30  2  0  0  0
 30 31  1  0  0  0
 31 32  2  0  0  0
 32 33  1  0  0  0
 33 34  2  0  0  0
 33 35  2  0  0  0
 33 36  1  0  0  0
 36 37  1  0  0  0
 36 38  1  0  0  0
  6  7  2  0  0  0
 12 16  1  0  0  0
 16 17  1  0  0  0
 17 18  1  0  0  0
 18 19  1  0  0  0
 19 20  1  0  0  0
 20 21  1  0  0  0
 15 10  1  0  0  0
  7  1  1  0  0  0
 21 16  1  0  0  0
 32 27  1  0  0  0
  8  9  1  0  0  0
 25 26  1  0  0  0
 19 22  1  0  0  0
M  END
> <minimizedAffinity>
-8.04241

> <CNNscore>
0.4980841875

> <CNNaffinity>
7.3810257912

> <CNN_VS>
3.6763722897

> <CNNaffinity_variance>
0.2414146364

$$$$
[H]c1nc(N([H])c2c([H])c([H])c(N3C([H])([H])C([H])([H])N([H])C([H])([H])C3([H])[H])c([H])c2OC([H])([H])[H])nc(N([H])c2c([H])c([H])c([H])c([H])c2S(=O)(=O)C([H])(C([H])([H])[H])C([H])([H])[H])c1Cl


 38 41  0  0  0  0  0  0  0  0999 V2000
   54.9278   -4.0982   -8.9679 C   0  0  0  0  0  0  0  0  0  0  0  0
   54.0512   -3.1515   -9.2558 N   0  0  0  0  0  0  0  0  0  0  0  0
   52.9193   -2.9875   -8.5993 C   0  0  0  0  0  0  0  0  0  0  0  0
   52.6186   -3.8339   -7.5599 C   0  0  0  0  0  0  0  0  0  0  0  0
   51.1475   -3.6367   -6.6912 Cl  0  0  0  0  0  0  0  0  0  0  0  0
   53.4995   -4.8686   -7.1897 C   0  0  0  0  0  0  0  0  0  0  0  0
   54.5936   -4.9298   -7.9188 N   0  0  0  0  0  0  0  0  0  0  0  0
   56.1507   -4.3336   -9.6252 N   0  0  0  0  0  0  0  0  0  0  0  0
   56.9674   -4.7329   -9.0332 H   0  0  0  0  0  0  0  0  0  0  0  0
   57.8022   -4.2800  -11.4033 C   0  0  0  0  0  0  0  0  0  0  0  0
   58.1469   -4.0816  -12.7167 C   0  0  0  0  0  0  0  0  0  0  0  0
   57.2203   -3.7202  -13.6651 C   0  0  0  0  0  0  0  0  0  0  0  0
   55.9283   -3.5600  -13.2664 C   0  0  0  0  0  0  0  0  0  0  0  0
   55.5519   -3.7575  -11.9281 C   0  0  0  0  0  0  0  0  0  0  0  0
   56.4616   -4.1178  -10.9705 C   0  0  0  0  0  0  0  0  0  0  0  0
   57.5889   -3.5185  -15.0111 N   0  0  0  0  0  0  0  0  0  0  0  0
   58.9290   -3.0143  -15.3002 C   0  0  0  0  0  0  0  0  0  0  0  0
   59.0560   -2.6540  -16.7582 C   0  0  0  0  0  0  0  0  0  0  0  0
   58.7827   -3.8320  -17.5616 N   0  0  0  0  0  0  0  0  0  0  0  0
   57.5082   -4.4234  -17.2958 C   0  0  0  0  0  0  0  0  0  0  0  0
   56.7506   -3.7722  -16.1522 C   0  0  0  0  0  0  0  0  0  0  0  0
   59.5412   -4.5328  -17.3324 H   0  0  0  0  0  0  0  0  0  0  0  0
   58.9350   -6.0148  -10.1554 C   0  0  0  0  0  0  0  0  0  0  0  0
   58.7322   -4.6434  -10.4490 O   0  0  0  0  0  0  0  0  0  0  0  0
   53.1575   -5.7073   -6.1511 N   0  0  0  0  0  0  0  0  0  0  0  0
   52.1131   -5.8543   -5.9949 H   0  0  0  0  0  0  0  0  0  0  0  0
   54.0034   -6.3832   -5.2549 C   0  0  0  0  0  0  0  0  0  0  0  0
   55.2763   -6.7609   -5.5466 C   0  0  0  0  0  0  0  0  0  0  0  0
   56.0745   -7.3909   -4.6039 C   0  0  0  0  0  0  0  0  0  0  0  0
   55.6137   -7.6591   -3.3387 C   0  0  0  0  0  0  0  0  0  0  0  0
   54.3248   -7.2691   -3.0661 C   0  0  0  0  0  0  0  0  0  0  0  0
   53.5081   -6.6498   -3.9599 C   0  0  0  0  0  0  0  0  0  0  0  0
   51.8996   -6.2461   -3.4912 S   0  0  0  0  0  0  0  0  0  0  0  0
   50.8972   -6.5148   -4.6121 O   0  0  0  0  0  0  0  0  0  0  0  0
   51.8262   -4.7299   -3.3222 O   0  0  0  0  0  0  0  0  0  0  0  0
   51.3694   -6.9103   -1.9584 C   0  0  0  0  0  0  0  0  0  0  0  0
   52.4130   -6.4821   -0.9143 C   0  0  0  0  0  0  0  0  0  0  0  0
   51.4845   -8.4196   -2.0494 C   0  0  0  0  0  0  0  0  0  0  0  0
 23 24  1  0  0  0
 24 10  1  0  0  0
 10 11  2  0  0  0
 11 12  1  0  0  0
 12 13  2  0  0  0
 13 14  1  0  0  0
 14 15  2  0  0  0
 15  8  1  0  0  0
  8  1  1  0  0  0
  1  2  2  0  0  0
  2  3  1  0  0  0
  3  4  2  0  0  0
  4  5  1  0  0  0
  4  6  1  0  0  0
  6 25  1  0  0  0
 25 27  1  0  0  0
 27 28  2  0  0  0
 28 29  1  0  0  0
 29 30  2  0  0  0
 30 31  1  0  0  0
 31 32  2  0  0  0
 32 33  1  0  0  0
 33 34  2  0  0  0
 33 35  2  0  0  0
 33 36  1  0  0  0
 36 37  1  0  0  0
 36 38  1  0  0  0
  6  7  2  0  0  0
 12 16  1  0  0  0
 16 17  1  0  0  0
 17 18  1  0  0  0
 18 19  1  0  0  0
 19 20  1  0  0  0
 20 21  1  0  0  0
 15 10  1  0  0  0
  7  1  1  0  0  0
 21 16  1  0  0  0
 32 27  1  0  0  0
  8  9  1  0  0  0
 25 26  1  0  0  0
 19 22  1  0  0  0
M  END
> <minimizedAffinity>
-7.05609

> <CNNscore>
0.4146685302

> <CNNaffinity>
7.2702589035

> <CNN_VS>
3.0147476196

> <CNNaffinity_variance>
0.0798430368

$$$$
[H]c1nc(N([H])c2c([H])c([H])c(N3C([H])([H])C([H])([H])N([H])C([H])([H])C3([H])[H])c([H])c2OC([H])([H])[H])nc(N([H])c2c([H])c([H])c([H])c([H])c2S(=O)(=O)C([H])(C([H])([H])[H])C([H])([H])[H])c1Cl


 38 41  0  0  0  0  0  0  0  0999 V2000
   56.3947   -4.4846   -9.5272 C   0  0  0  0  0  0  0  0  0  0  0  0
   57.1623   -5.2538   -8.7743 N   0  0  0  0  0  0  0  0  0  0  0  0
   58.3805   -5.6224   -9.1197 C   0  0  0  0  0  0  0  0  0  0  0  0
   58.8952   -5.1950  -10.3195 C   0  0  0  0  0  0  0  0  0  0  0  0
   60.4818   -5.6648  -10.7883 Cl  0  0  0  0  0  0  0  0  0  0  0  0
   58.1417   -4.3730  -11.1798 C   0  0  0  0  0  0  0  0  0  0  0  0
   56.9434   -4.0740  -10.7248 N   0  0  0  0  0  0  0  0  0  0  0  0
   55.0882   -4.0551   -9.2249 N   0  0  0  0  0  0  0  0  0  0  0  0
   54.6380   -3.3216   -9.8854 H   0  0  0  0  0  0  0  0  0  0  0  0
   52.9855   -3.8784   -8.0252 C   0  0  0  0  0  0  0  0  0  0  0  0
   52.1535   -4.2494   -6.9989 C   0  0  0  0  0  0  0  0  0  0  0  0
   52.5234   -5.1884   -6.0660 C   0  0  0  0  0  0  0  0  0  0  0  0
   53.7565   -5.7535   -6.1839 C   0  0  0  0  0  0  0  0  0  0  0  0
   54.6251   -5.3899   -7.2255 C   0  0  0  0  0  0  0  0  0  0  0  0
   54.2729   -4.4567   -8.1633 C   0  0  0  0  0  0  0  0  0  0  0  0
   51.6586   -5.5591   -5.0158 N   0  0  0  0  0  0  0  0  0  0  0  0
   52.2417   -6.0746   -3.7798 C   0  0  0  0  0  0  0  0  0  0  0  0
   51.1672   -6.6211   -2.8751 C   0  0  0  0  0  0  0  0  0  0  0  0
   50.2187   -5.5636   -2.5754 N   0  0  0  0  0  0  0  0  0  0  0  0
   49.6434   -4.9637   -3.7391 C   0  0  0  0  0  0  0  0  0  0  0  0
   50.2231   -5.4715   -5.0475 C   0  0  0  0  0  0  0  0  0  0  0  0
   50.7531   -4.8263   -2.0372 H   0  0  0  0  0  0  0  0  0  0  0  0
   51.6363   -1.9652   -8.6329 C   0  0  0  0  0  0  0  0  0  0  0  0
   52.6151   -2.9351   -8.9636 O   0  0  0  0  0  0  0  0  0  0  0  0
   58.6856   -3.9757  -12.3821 N   0  0  0  0  0  0  0  0  0  0  0  0
   59.7333   -3.7776  -12.3772 H   0  0  0  0  0  0  0  0  0  0  0  0
   58.0391   -3.7781  -13.6143 C   0  0  0  0  0  0  0  0  0  0  0  0
   56.6922   -3.8431  -13.7869 C   0  0  0  0  0  0  0  0  0  0  0  0
   56.1119   -3.5992  -15.0223 C   0  0  0  0  0  0  0  0  0  0  0  0
   56.8716   -3.2823  -16.1211 C   0  0  0  0  0  0  0  0  0  0  0  0
   58.2300   -3.2225  -15.9238 C   0  0  0  0  0  0  0  0  0  0  0  0
   58.8403   -3.4547  -14.7310 C   0  0  0  0  0  0  0  0  0  0  0  0
   60.5593   -3.3778  -14.6359 S   0  0  0  0  0  0  0  0  0  0  0  0
   61.1241   -4.4409  -13.6955 O   0  0  0  0  0  0  0  0  0  0  0  0
   60.9332   -2.0709  -13.9394 O   0  0  0  0  0  0  0  0  0  0  0  0
   61.4008   -3.3419  -16.1729 C   0  0  0  0  0  0  0  0  0  0  0  0
   61.7319   -4.8018  -16.5218 C   0  0  0  0  0  0  0  0  0  0  0  0
   62.7396   -2.6670  -15.9458 C   0  0  0  0  0  0  0  0  0  0  0  0
 23 24  1  0  0  0
 24 10  1  0  0  0
 10 11  2  0  0  0
 11 12  1  0  0  0
 12 13  2  0  0  0
 13 14  1  0  0  0
 14 15  2  0  0  0
 15  8  1  0  0  0
  8  1  1  0  0  0
  1  2  2  0  0  0
  2  3  1  0  0  0
  3  4  2  0  0  0
  4  5  1  0  0  0
  4  6  1  0  0  0
  6 25  1  0  0  0
 25 27  1  0  0  0
 27 28  2  0  0  0
 28 29  1  0  0  0
 29 30  2  0  0  0
 30 31  1  0  0  0
 31 32  2  0  0  0
 32 33  1  0  0  0
 33 34  2  0  0  0
 33 35  2  0  0  0
 33 36  1  0  0  0
 36 37  1  0  0  0
 36 38  1  0  0  0
  6  7  2  0  0  0
 12 16  1  0  0  0
 16 17  1  0  0  0
 17 18  1  0  0  0
 18 19  1  0  0  0
 19 20  1  0  0  0
 20 21  1  0  0  0
 15 10  1  0  0  0
  7  1  1  0  0  0
 21 16  1  0  0  0
 32 27  1  0  0  0
  8  9  1  0  0  0
 25 26  1  0  0  0
 19 22  1  0  0  0
M  END
> <minimizedAffinity>
-7.81524

> <CNNscore>
0.4019143283

> <CNNaffinity>
6.9598746300

> <CNN_VS>
2.7972733974

> <CNNaffinity_variance>
0.0990861729

$$$$
[H]c1nc(N([H])c2c([H])c([H])c(N3C([H])([H])C([H])([H])N([H])C([H])([H])C3([H])[H])c([H])c2OC([H])([H])[H])nc(N([H])c2c([H])c([H])c([H])c([H])c2S(=O)(=O)C([H])(C([H])([H])[H])C([H])([H])[H])c1Cl


 38 41  0  0  0  0  0  0  0  0999 V2000
   54.5095   -4.5092   -8.3917 C   0  0  0  0  0  0  0  0  0  0  0  0
   53.5350   -4.6223   -9.2778 N   0  0  0  0  0  0  0  0  0  0  0  0
   52.3818   -5.2064   -9.0169 C   0  0  0  0  0  0  0  0  0  0  0  0
   52.1636   -5.7299   -7.7657 C   0  0  0  0  0  0  0  0  0  0  0  0
   50.6665   -6.4957   -7.4054 Cl  0  0  0  0  0  0  0  0  0  0  0  0
   53.1512   -5.6507   -6.7647 C   0  0  0  0  0  0  0  0  0  0  0  0
   54.2562   -5.0459   -7.1461 N   0  0  0  0  0  0  0  0  0  0  0  0
   55.7634   -3.9033   -8.6002 N   0  0  0  0  0  0  0  0  0  0  0  0
   55.8086   -2.8203   -8.5554 H   0  0  0  0  0  0  0  0  0  0  0  0
   57.6977   -5.1284   -7.7944 C   0  0  0  0  0  0  0  0  0  0  0  0
   58.9007   -5.7517   -8.0121 C   0  0  0  0  0  0  0  0  0  0  0  0
   59.4689   -5.8197   -9.2616 C   0  0  0  0  0  0  0  0  0  0  0  0
   58.8002   -5.2444  -10.2988 C   0  0  0  0  0  0  0  0  0  0  0  0
   57.5679   -4.6010  -10.1003 C   0  0  0  0  0  0  0  0  0  0  0  0
   56.9875   -4.5241   -8.8627 C   0  0  0  0  0  0  0  0  0  0  0  0
   60.7064   -6.4625   -9.4705 N   0  0  0  0  0  0  0  0  0  0  0  0
   61.3212   -7.1743   -8.3529 C   0  0  0  0  0  0  0  0  0  0  0  0
   62.7252   -7.5966   -8.7023 C   0  0  0  0  0  0  0  0  0  0  0  0
   62.6836   -8.4514   -9.8751 N   0  0  0  0  0  0  0  0  0  0  0  0
   62.0420   -7.8475  -11.0014 C   0  0  0  0  0  0  0  0  0  0  0  0
   61.4346   -6.4863  -10.7108 C   0  0  0  0  0  0  0  0  0  0  0  0
   62.1437   -9.3169   -9.5953 H   0  0  0  0  0  0  0  0  0  0  0  0
   56.8921   -6.2515   -5.8096 C   0  0  0  0  0  0  0  0  0  0  0  0
   57.1253   -5.0594   -6.5393 O   0  0  0  0  0  0  0  0  0  0  0  0
   52.9021   -6.2001   -5.5255 N   0  0  0  0  0  0  0  0  0  0  0  0
   53.4745   -7.0641   -5.2749 H   0  0  0  0  0  0  0  0  0  0  0  0
   51.9783   -5.7839   -4.5515 C   0  0  0  0  0  0  0  0  0  0  0  0
   50.6847   -5.4614   -4.8170 C   0  0  0  0  0  0  0  0  0  0  0  0
   49.8114   -5.0951   -3.8043 C   0  0  0  0  0  0  0  0  0  0  0  0
   50.2155   -5.0431   -2.4932 C   0  0  0  0  0  0  0  0  0  0  0  0
   51.5266   -5.3726   -2.2481 C   0  0  0  0  0  0  0  0  0  0  0  0
   52.4163   -5.7364   -3.2100 C   0  0  0  0  0  0  0  0  0  0  0  0
   54.0420   -6.0916   -2.7621 S   0  0  0  0  0  0  0  0  0  0  0  0
   55.0344   -5.1348   -3.4203 O   0  0  0  0  0  0  0  0  0  0  0  0
   54.4128   -7.4422   -3.3716 O   0  0  0  0  0  0  0  0  0  0  0  0
   54.3322   -6.2631   -1.0422 C   0  0  0  0  0  0  0  0  0  0  0  0
   55.6646   -5.5535   -0.7528 C   0  0  0  0  0  0  0  0  0  0  0  0
   54.5882   -7.7320   -0.7657 C   0  0  0  0  0  0  0  0  0  0  0  0
 23 24  1  0  0  0
 24 10  1  0  0  0
 10 11  2  0  0  0
 11 12  1  0  0  0
 12 13  2  0  0  0
 13 14  1  0  0  0
 14 15  2  0  0  0
 15  8  1  0  0  0
  8  1  1  0  0  0
  1  2  2  0  0  0
  2  3  1  0  0  0
  3  4  2  0  0  0
  4  5  1  0  0  0
  4  6  1  0  0  0
  6 25  1  0  0  0
 25 27  1  0  0  0
 27 28  2  0  0  0
 28 29  1  0  0  0
 29 30  2  0  0  0
 30 31  1  0  0  0
 31 32  2  0  0  0
 32 33  1  0  0  0
 33 34  2  0  0  0
 33 35  2  0  0  0
 33 36  1  0  0  0
 36 37  1  0  0  0
 36 38  1  0  0  0
  6  7  2  0  0  0
 12 16  1  0  0  0
 16 17  1  0  0  0
 17 18  1  0  0  0
 18 19  1  0  0  0
 19 20  1  0  0  0
 20 21  1  0  0  0
 15 10  1  0  0  0
  7  1  1  0  0  0
 21 16  1  0  0  0
 32 27  1  0  0  0
  8  9  1  0  0  0
 25 26  1  0  0  0
 19 22  1  0  0  0
M  END
> <minimizedAffinity>
-5.62108

> <CNNscore>
0.3189682662

> <CNNaffinity>
6.9295454025

> <CNN_VS>
2.2103049755

> <CNNaffinity_variance>
0.2270931304

$$$$
[H]c1sc2c(c1[H])C([H])(C([H])([H])N(C([H])([H])[H])C([H])([H])C([H])([H])C([H])([H])[H])c1c([H])c([H])c([H])c([H])c1C([H])([H])C([H])([H])C2([H])[H]


 21 23  0  0  0  0  0  0  0  0999 V2000
   64.5305   -8.8232  -14.2775 C   0  0  0  0  0  0  0  0  0  0  0  0
   64.1161   -9.1522  -12.8890 C   0  0  0  0  0  0  0  0  0  0  0  0
   64.1876   -7.9945  -12.1713 C   0  0  0  0  0  0  0  0  0  0  0  0
   63.8463   -8.0395  -10.8109 C   0  0  0  0  0  0  0  0  0  0  0  0
   63.4527   -9.2256  -10.2282 C   0  0  0  0  0  0  0  0  0  0  0  0
   63.3893  -10.3837  -10.9723 C   0  0  0  0  0  0  0  0  0  0  0  0
   63.7152  -10.3636  -12.2907 C   0  0  0  0  0  0  0  0  0  0  0  0
   63.5831  -11.7838  -12.7754 C   0  0  0  0  0  0  0  0  0  0  0  0
   64.9741  -12.4044  -12.7749 C   0  0  0  0  0  0  0  0  0  0  0  0
   65.7549  -11.9626  -14.0091 C   0  0  0  0  0  0  0  0  0  0  0  0
   64.7895  -11.2876  -14.9564 C   0  0  0  0  0  0  0  0  0  0  0  0
   64.2138  -10.0408  -15.1332 C   0  0  0  0  0  0  0  0  0  0  0  0
   63.3471   -9.9415  -16.1162 C   0  0  0  0  0  0  0  0  0  0  0  0
   63.0779  -11.0505  -16.8872 C   0  0  0  0  0  0  0  0  0  0  0  0
   64.0876  -12.2523  -16.1816 S   0  0  0  0  0  0  0  0  0  0  0  0
   63.9480   -7.5962  -14.8114 C   0  0  0  0  0  0  0  0  0  0  0  0
   64.9325   -6.6973  -15.4324 N   0  0  0  0  0  0  0  0  0  0  0  0
   64.6238   -6.6948  -16.8739 C   0  0  0  0  0  0  0  0  0  0  0  0
   64.8260   -5.3456  -14.9909 C   0  0  0  0  0  0  0  0  0  0  0  0
   64.6828   -4.3138  -16.0619 C   0  0  0  0  0  0  0  0  0  0  0  0
   63.8702   -3.1180  -15.5622 C   0  0  0  0  0  0  0  0  0  0  0  0
 20 19  1  0  0  0
 19 17  1  0  0  0
 17 18  1  0  0  0
 17 16  1  0  0  0
 16  1  1  0  0  0
  1  2  1  0  0  0
  2  3  2  0  0  0
  3  4  1  0  0  0
  4  5  2  0  0  0
  5  6  1  0  0  0
  6  7  2  0  0  0
  7  8  1  0  0  0
  8  9  1  0  0  0
  9 10  1  0  0  0
 10 11  1  0  0  0
 11 12  2  0  0  0
 12 13  1  0  0  0
 13 14  2  0  0  0
 14 15  1  0  0  0
 20 21  1  0  0  0
 12  1  1  0  0  0
  7  2  1  0  0  0
 15 11  1  0  0  0
M  END
> <minimizedAffinity>
-1.30517

> <CNNscore>
0.6265613437

> <CNNaffinity>
4.1981134415

> <CNN_VS>
2.6303756237

> <CNNaffinity_variance>
0.1367022097

$$$$
[H]c1sc2c(c1[H])C([H])(C([H])([H])N(C([H])([H])[H])C([H])([H])C([H])([H])C([H])([H])[H])c1c([H])c([H])c([H])c([H])c1C([H])([H])C([H])([H])C2([H])[H]


 21 23  0  0  0  0  0  0  0  0999 V2000
   54.3827   -5.7282   -1.8818 C   0  0  0  0  0  0  0  0  0  0  0  0
   52.9891   -5.2655   -2.1091 C   0  0  0  0  0  0  0  0  0  0  0  0
   52.9007   -4.0086   -1.5870 C   0  0  0  0  0  0  0  0  0  0  0  0
   51.6675   -3.3443   -1.6713 C   0  0  0  0  0  0  0  0  0  0  0  0
   50.5840   -3.9554   -2.2661 C   0  0  0  0  0  0  0  0  0  0  0  0
   50.6957   -5.2269   -2.7855 C   0  0  0  0  0  0  0  0  0  0  0  0
   51.8797   -5.8888   -2.7149 C   0  0  0  0  0  0  0  0  0  0  0  0
   51.6373   -7.2448   -3.3246 C   0  0  0  0  0  0  0  0  0  0  0  0
   51.3923   -8.2270   -2.1865 C   0  0  0  0  0  0  0  0  0  0  0  0
   52.7148   -8.6501   -1.5540 C   0  0  0  0  0  0  0  0  0  0  0  0
   53.8352   -8.1733   -2.4498 C   0  0  0  0  0  0  0  0  0  0  0  0
   54.5566   -7.0136   -2.6771 C   0  0  0  0  0  0  0  0  0  0  0  0
   55.4420   -7.0676   -3.6470 C   0  0  0  0  0  0  0  0  0  0  0  0
   55.5936   -8.2412   -4.3516 C   0  0  0  0  0  0  0  0  0  0  0  0
   54.4410   -9.2787   -3.6055 S   0  0  0  0  0  0  0  0  0  0  0  0
   55.4098   -4.7372   -2.1868 C   0  0  0  0  0  0  0  0  0  0  0  0
   56.5698   -4.7930   -1.2844 N   0  0  0  0  0  0  0  0  0  0  0  0
   56.2632   -5.8445   -0.2976 C   0  0  0  0  0  0  0  0  0  0  0  0
   57.7772   -5.1841   -1.9342 C   0  0  0  0  0  0  0  0  0  0  0  0
   58.8940   -5.6164   -1.0409 C   0  0  0  0  0  0  0  0  0  0  0  0
   60.0572   -6.1830   -1.8570 C   0  0  0  0  0  0  0  0  0  0  0  0
 20 19  1  0  0  0
 19 17  1  0  0  0
 17 18  1  0  0  0
 17 16  1  0  0  0
 16  1  1  0  0  0
  1  2  1  0  0  0
  2  3  2  0  0  0
  3  4  1  0  0  0
  4  5  2  0  0  0
  5  6  1  0  0  0
  6  7  2  0  0  0
  7  8  1  0  0  0
  8  9  1  0  0  0
  9 10  1  0  0  0
 10 11  1  0  0  0
 11 12  2  0  0  0
 12 13  1  0  0  0
 13 14  2  0  0  0
 14 15  1  0  0  0
 20 21  1  0  0  0
 12  1  1  0  0  0
  7  2  1  0  0  0
 15 11  1  0  0  0
M  END
> <minimizedAffinity>
2.21122

> <CNNscore>
0.3676367402

> <CNNaffinity>
5.0774979591

> <CNN_VS>
1.8666747808

> <CNNaffinity_variance>
0.6761619449

$$$$
[H]c1sc2c(c1[H])C([H])(C([H])([H])N(C([H])([H])[H])C([H])([H])C([H])([H])C([H])([H])[H])c1c([H])c([H])c([H])c([H])c1C([H])([H])C([H])([H])C2([H])[H]


 21 23  0  0  0  0  0  0  0  0999 V2000
   51.0559   -4.7856   -3.9091 C   0  0  0  0  0  0  0  0  0  0  0  0
   51.4748   -5.2589   -5.2539 C   0  0  0  0  0  0  0  0  0  0  0  0
   52.6529   -5.9259   -5.0879 C   0  0  0  0  0  0  0  0  0  0  0  0
   53.2668   -6.4736   -6.2247 C   0  0  0  0  0  0  0  0  0  0  0  0
   52.6865   -6.3340   -7.4677 C   0  0  0  0  0  0  0  0  0  0  0  0
   51.4965   -5.6544   -7.6122 C   0  0  0  0  0  0  0  0  0  0  0  0
   50.8846   -5.1160   -6.5257 C   0  0  0  0  0  0  0  0  0  0  0  0
   49.6541   -4.4174   -7.0425 C   0  0  0  0  0  0  0  0  0  0  0  0
   49.9866   -2.9376   -7.1834 C   0  0  0  0  0  0  0  0  0  0  0  0
   49.9174   -2.2446   -5.8258 C   0  0  0  0  0  0  0  0  0  0  0  0
   49.2682   -3.1965   -4.8473 C   0  0  0  0  0  0  0  0  0  0  0  0
   49.6324   -4.2663   -4.0473 C   0  0  0  0  0  0  0  0  0  0  0  0
   48.6590   -4.8404   -3.3762 C   0  0  0  0  0  0  0  0  0  0  0  0
   47.3774   -4.3528   -3.5052 C   0  0  0  0  0  0  0  0  0  0  0  0
   47.5808   -3.0505   -4.6117 S   0  0  0  0  0  0  0  0  0  0  0  0
   51.1900   -5.7770   -2.8465 C   0  0  0  0  0  0  0  0  0  0  0  0
   51.9476   -5.2946   -1.6818 N   0  0  0  0  0  0  0  0  0  0  0  0
   52.2725   -6.4931   -0.8872 C   0  0  0  0  0  0  0  0  0  0  0  0
   53.1899   -4.6845   -2.0248 C   0  0  0  0  0  0  0  0  0  0  0  0
   54.4016   -5.5508   -1.9094 C   0  0  0  0  0  0  0  0  0  0  0  0
   55.5135   -5.0601   -2.8383 C   0  0  0  0  0  0  0  0  0  0  0  0
 20 19  1  0  0  0
 19 17  1  0  0  0
 17 18  1  0  0  0
 17 16  1  0  0  0
 16  1  1  0  0  0
  1  2  1  0  0  0
  2  3  2  0  0  0
  3  4  1  0  0  0
  4  5  2  0  0  0
  5  6  1  0  0  0
  6  7  2  0  0  0
  7  8  1  0  0  0
  8  9  1  0  0  0
  9 10  1  0  0  0
 10 11  1  0  0  0
 11 12  2  0  0  0
 12 13  1  0  0  0
 13 14  2  0  0  0
 14 15  1  0  0  0
 20 21  1  0  0  0
 12  1  1  0  0  0
  7  2  1  0  0  0
 15 11  1  0  0  0
M  END
> <minimizedAffinity>
-5.25401

> <CNNscore>
0.3025554419

> <CNNaffinity>
6.1594429016

> <CNN_VS>
1.8635729551

> <CNNaffinity_variance>
0.1191183701

$$$$
[H]c1sc2c(c1[H])C([H])(C([H])([H])N(C([H])([H])[H])C([H])([H])C([H])([H])C([H])([H])[H])c1c([H])c([H])c([H])c([H])c1C([H])([H])C([H])([H])C2([H])[H]


 21 23  0  0  0  0  0  0  0  0999 V2000
   53.1206   -5.5287   -5.6489 C   0  0  0  0  0  0  0  0  0  0  0  0
   54.1140   -5.0494   -6.6446 C   0  0  0  0  0  0  0  0  0  0  0  0
   55.3428   -5.1690   -6.0648 C   0  0  0  0  0  0  0  0  0  0  0  0
   56.4647   -4.7723   -6.8085 C   0  0  0  0  0  0  0  0  0  0  0  0
   56.3160   -4.2769   -8.0867 C   0  0  0  0  0  0  0  0  0  0  0  0
   55.0644   -4.1633   -8.6520 C   0  0  0  0  0  0  0  0  0  0  0  0
   53.9645   -4.5410   -7.9505 C   0  0  0  0  0  0  0  0  0  0  0  0
   52.7820   -4.2428   -8.8349 C   0  0  0  0  0  0  0  0  0  0  0  0
   52.2019   -2.9044   -8.3964 C   0  0  0  0  0  0  0  0  0  0  0  0
   51.3380   -3.0808   -7.1511 C   0  0  0  0  0  0  0  0  0  0  0  0
   51.1202   -4.5616   -6.9389 C   0  0  0  0  0  0  0  0  0  0  0  0
   51.7863   -5.6350   -6.3722 C   0  0  0  0  0  0  0  0  0  0  0  0
   51.1937   -6.8030   -6.4826 C   0  0  0  0  0  0  0  0  0  0  0  0
   49.9819   -6.8811   -7.1325 C   0  0  0  0  0  0  0  0  0  0  0  0
   49.6963   -5.2474   -7.5920 S   0  0  0  0  0  0  0  0  0  0  0  0
   53.4896   -6.7662   -4.9689 C   0  0  0  0  0  0  0  0  0  0  0  0
   53.7578   -6.5931   -3.5333 N   0  0  0  0  0  0  0  0  0  0  0  0
   52.4713   -6.8247   -2.8516 C   0  0  0  0  0  0  0  0  0  0  0  0
   54.6753   -7.5494   -3.0070 C   0  0  0  0  0  0  0  0  0  0  0  0
   55.9813   -7.6701   -3.7226 C   0  0  0  0  0  0  0  0  0  0  0  0
   56.8837   -6.4736   -3.4162 C   0  0  0  0  0  0  0  0  0  0  0  0
 20 19  1  0  0  0
 19 17  1  0  0  0
 17 18  1  0  0  0
 17 16  1  0  0  0
 16  1  1  0  0  0
  1  2  1  0  0  0
  2  3  2  0  0  0
  3  4  1  0  0  0
  4  5  2  0  0  0
  5  6  1  0  0  0
  6  7  2  0  0  0
  7  8  1  0  0  0
  8  9  1  0  0  0
  9 10  1  0  0  0
 10 11  1  0  0  0
 11 12  2  0  0  0
 12 13  1  0  0  0
 13 14  2  0  0  0
 14 15  1  0  0  0
 20 21  1  0  0  0
 12  1  1  0  0  0
  7  2  1  0  0  0
 15 11  1  0  0  0
M  END
> <minimizedAffinity>
-6.17849

> <CNNscore>
0.2786696255

> <CNNaffinity>
6.2706098557

> <CNN_VS>
1.7474285364

> <CNNaffinity_variance>
0.1798441708

$$$$
[H]c1sc2c(c1[H])C([H])(C([H])([H])N(C([H])([H])[H])C([H])([H])C([H])([H])C([H])([H])[H])c1c([H])c([H])c([H])c([H])c1C([H])([H])C([H])([H])C2([H])[H]


 21 23  0  0  0  0  0  0  0  0999 V2000
   55.6217   -5.0296   -7.6515 C   0  0  0  0  0  0  0  0  0  0  0  0
   55.3307   -5.5818   -6.3031 C   0  0  0  0  0  0  0  0  0  0  0  0
   56.4876   -6.1437   -5.8489 C   0  0  0  0  0  0  0  0  0  0  0  0
   56.4754   -6.7463   -4.5817 C   0  0  0  0  0  0  0  0  0  0  0  0
   55.3210   -6.7643   -3.8278 C   0  0  0  0  0  0  0  0  0  0  0  0
   54.1629   -6.1919   -4.3075 C   0  0  0  0  0  0  0  0  0  0  0  0
   54.1516   -5.6031   -5.5314 C   0  0  0  0  0  0  0  0  0  0  0  0
   52.7384   -5.1319   -5.7554 C   0  0  0  0  0  0  0  0  0  0  0  0
   52.0325   -6.1759   -6.6109 C   0  0  0  0  0  0  0  0  0  0  0  0
   52.4146   -6.0088   -8.0786 C   0  0  0  0  0  0  0  0  0  0  0  0
   53.1405   -4.6909   -8.2257 C   0  0  0  0  0  0  0  0  0  0  0  0
   54.4191   -4.1886   -8.0533 C   0  0  0  0  0  0  0  0  0  0  0  0
   54.5640   -2.8994   -8.2642 C   0  0  0  0  0  0  0  0  0  0  0  0
   53.4675   -2.1536   -8.6360 C   0  0  0  0  0  0  0  0  0  0  0  0
   52.2111   -3.3289   -8.6789 S   0  0  0  0  0  0  0  0  0  0  0  0
   56.8781   -4.2934   -7.7490 C   0  0  0  0  0  0  0  0  0  0  0  0
   57.5969   -4.5179   -9.0123 N   0  0  0  0  0  0  0  0  0  0  0  0
   58.6023   -5.5573   -8.7254 C   0  0  0  0  0  0  0  0  0  0  0  0
   56.7687   -5.0292  -10.0544 C   0  0  0  0  0  0  0  0  0  0  0  0
   56.5100   -4.1067  -11.2008 C   0  0  0  0  0  0  0  0  0  0  0  0
   57.7709   -3.9211  -12.0468 C   0  0  0  0  0  0  0  0  0  0  0  0
 20 19  1  0  0  0
 19 17  1  0  0  0
 17 18  1  0  0  0
 17 16  1  0  0  0
 16  1  1  0  0  0
  1  2  1  0  0  0
  2  3  2  0  0  0
  3  4  1  0  0  0
  4  5  2  0  0  0
  5  6  1  0  0  0
  6  7  2  0  0  0
  7  8  1  0  0  0
  8  9  1  0  0  0
  9 10  1  0  0  0
 10 11  1  0  0  0
 11 12  2  0  0  0
 12 13  1  0  0  0
 13 14  2  0  0  0
 14 15  1  0  0  0
 20 21  1  0  0  0
 12  1  1  0  0  0
  7  2  1  0  0  0
 15 11  1  0  0  0
M  END
> <minimizedAffinity>
-6.61519

> <CNNscore>
0.2588634193

> <CNNaffinity>
6.1421122551

> <CNN_VS>
1.5899682045

> <CNNaffinity_variance>
0.0950370133

$$$$
[H]c1sc2c(c1[H])C([H])(C([H])([H])N(C([H])([H])[H])C([H])([H])C([H])([H])C([H])([H])[H])c1c([H])c([H])c([H])c([H])c1C([H])([H])C([H])([H])C2([H])[H]


 21 23  0  0  0  0  0  0  0  0999 V2000
   53.7201   -4.9561   -6.1362 C   0  0  0  0  0  0  0  0  0  0  0  0
   54.5426   -4.6745   -7.3412 C   0  0  0  0  0  0  0  0  0  0  0  0
   55.8480   -4.7966   -6.9650 C   0  0  0  0  0  0  0  0  0  0  0  0
   56.8377   -4.5724   -7.9342 C   0  0  0  0  0  0  0  0  0  0  0  0
   56.4880   -4.2381   -9.2255 C   0  0  0  0  0  0  0  0  0  0  0  0
   55.1625   -4.1185   -9.5829 C   0  0  0  0  0  0  0  0  0  0  0  0
   54.1878   -4.3309   -8.6612 C   0  0  0  0  0  0  0  0  0  0  0  0
   52.8820   -4.0743   -9.3672 C   0  0  0  0  0  0  0  0  0  0  0  0
   52.4428   -2.6561   -9.0272 C   0  0  0  0  0  0  0  0  0  0  0  0
   51.8037   -2.6139   -7.6424 C   0  0  0  0  0  0  0  0  0  0  0  0
   51.5660   -4.0377   -7.1934 C   0  0  0  0  0  0  0  0  0  0  0  0
   52.2765   -5.0693   -6.6035 C   0  0  0  0  0  0  0  0  0  0  0  0
   51.6265   -6.2013   -6.4498 C   0  0  0  0  0  0  0  0  0  0  0  0
   50.3175   -6.2849   -6.8698 C   0  0  0  0  0  0  0  0  0  0  0  0
   50.0230   -4.7095   -7.4968 S   0  0  0  0  0  0  0  0  0  0  0  0
   54.1514   -6.1163   -5.3630 C   0  0  0  0  0  0  0  0  0  0  0  0
   54.2410   -5.8615   -3.9173 N   0  0  0  0  0  0  0  0  0  0  0  0
   53.5213   -6.9715   -3.2666 C   0  0  0  0  0  0  0  0  0  0  0  0
   55.5756   -5.8925   -3.4162 C   0  0  0  0  0  0  0  0  0  0  0  0
   56.2363   -4.5664   -3.2236 C   0  0  0  0  0  0  0  0  0  0  0  0
   57.1206   -4.5737   -1.9755 C   0  0  0  0  0  0  0  0  0  0  0  0
 20 19  1  0  0  0
 19 17  1  0  0  0
 17 18  1  0  0  0
 17 16  1  0  0  0
 16  1  1  0  0  0
  1  2  1  0  0  0
  2  3  2  0  0  0
  3  4  1  0  0  0
  4  5  2  0  0  0
  5  6  1  0  0  0
  6  7  2  0  0  0
  7  8  1  0  0  0
  8  9  1  0  0  0
  9 10  1  0  0  0
 10 11  1  0  0  0
 11 12  2  0  0  0
 12 13  1  0  0  0
 13 14  2  0  0  0
 14 15  1  0  0  0
 20 21  1  0  0  0
 12  1  1  0  0  0
  7  2  1  0  0  0
 15 11  1  0  0  0
M  END
> <minimizedAffinity>
-7.36331

> <CNNscore>
0.2458322197

> <CNNaffinity>
6.1949768066

> <CNN_VS>
1.5229249001

> <CNNaffinity_variance>
0.0456732661

$$$$
[H]c1sc2c(c1[H])C([H])(C([H])([H])N(C([H])([H])[H])C([H])([H])C([H])([H])C([H])([H])[H])c1c([H])c([H])c([H])c([H])c1C([H])([H])C([H])([H])C2([H])[H]


 21 23  0  0  0  0  0  0  0  0999 V2000
   54.9200   -4.4056   -9.5692 C   0  0  0  0  0  0  0  0  0  0  0  0
   55.7742   -4.8660   -8.4439 C   0  0  0  0  0  0  0  0  0  0  0  0
   57.0041   -5.1369   -8.9675 C   0  0  0  0  0  0  0  0  0  0  0  0
   58.0041   -5.5991   -8.0983 C   0  0  0  0  0  0  0  0  0  0  0  0
   57.7384   -5.7710   -6.7562 C   0  0  0  0  0  0  0  0  0  0  0  0
   56.4877   -5.4927   -6.2491 C   0  0  0  0  0  0  0  0  0  0  0  0
   55.5046   -5.0444   -7.0721 C   0  0  0  0  0  0  0  0  0  0  0  0
   54.2776   -4.8898   -6.2118 C   0  0  0  0  0  0  0  0  0  0  0  0
   53.4202   -6.1345   -6.4004 C   0  0  0  0  0  0  0  0  0  0  0  0
   52.6276   -6.0432   -7.7010 C   0  0  0  0  0  0  0  0  0  0  0  0
   52.7441   -4.6287   -8.2214 C   0  0  0  0  0  0  0  0  0  0  0  0
   53.6357   -3.8665   -8.9569 C   0  0  0  0  0  0  0  0  0  0  0  0
   53.3147   -2.6023   -9.1188 C   0  0  0  0  0  0  0  0  0  0  0  0
   52.1443   -2.1317   -8.5659 C   0  0  0  0  0  0  0  0  0  0  0  0
   51.5010   -3.5324   -7.8004 S   0  0  0  0  0  0  0  0  0  0  0  0
   55.5591   -3.4471  -10.4651 C   0  0  0  0  0  0  0  0  0  0  0  0
   56.3950   -4.0738  -11.5002 N   0  0  0  0  0  0  0  0  0  0  0  0
   55.5982   -4.0358  -12.7400 C   0  0  0  0  0  0  0  0  0  0  0  0
   57.5993   -3.3589  -11.7683 C   0  0  0  0  0  0  0  0  0  0  0  0
   58.7985   -4.1894  -12.0910 C   0  0  0  0  0  0  0  0  0  0  0  0
   59.6282   -3.5414  -13.2009 C   0  0  0  0  0  0  0  0  0  0  0  0
 20 19  1  0  0  0
 19 17  1  0  0  0
 17 18  1  0  0  0
 17 16  1  0  0  0
 16  1  1  0  0  0
  1  2  1  0  0  0
  2  3  2  0  0  0
  3  4  1  0  0  0
  4  5  2  0  0  0
  5  6  1  0  0  0
  6  7  2  0  0  0
  7  8  1  0  0  0
  8  9  1  0  0  0
  9 10  1  0  0  0
 10 11  1  0  0  0
 11 12  2  0  0  0
 12 13  1  0  0  0
 13 14  2  0  0  0
 14 15  1  0  0  0
 20 21  1  0  0  0
 12  1  1  0  0  0
  7  2  1  0  0  0
 15 11  1  0  0  0
M  END
> <minimizedAffinity>
-5.11599

> <CNNscore>
0.1939229667

> <CNNaffinity>
5.8297605515

> <CNN_VS>
1.1305245161

> <CNNaffinity_variance>
0.0491509959

$$$$
[H]c1sc2c(c1[H])C([H])(C([H])([H])N(C([H])([H])[H])C([H])([H])C([H])([H])C([H])([H])[H])c1c([H])c([H])c([H])c([H])c1C([H])([H])C([H])([H])C2([H])[H]


 21 23  0  0  0  0  0  0  0  0999 V2000
   53.0125   -6.0040   -3.8376 C   0  0  0  0  0  0  0  0  0  0  0  0
   54.2546   -6.7997   -3.6589 C   0  0  0  0  0  0  0  0  0  0  0  0
   54.3468   -7.0940   -2.3303 C   0  0  0  0  0  0  0  0  0  0  0  0
   55.4500   -7.8443   -1.8956 C   0  0  0  0  0  0  0  0  0  0  0  0
   56.4067   -8.2652   -2.7950 C   0  0  0  0  0  0  0  0  0  0  0  0
   56.2941   -7.9549   -4.1329 C   0  0  0  0  0  0  0  0  0  0  0  0
   55.2347   -7.2296   -4.5759 C   0  0  0  0  0  0  0  0  0  0  0  0
   55.4493   -7.0368   -6.0545 C   0  0  0  0  0  0  0  0  0  0  0  0
   56.0629   -5.6575   -6.2573 C   0  0  0  0  0  0  0  0  0  0  0  0
   54.9858   -4.5793   -6.1835 C   0  0  0  0  0  0  0  0  0  0  0  0
   53.6375   -5.2621   -6.2167 C   0  0  0  0  0  0  0  0  0  0  0  0
   52.7731   -5.8897   -5.3359 C   0  0  0  0  0  0  0  0  0  0  0  0
   51.6847   -6.4024   -5.8650 C   0  0  0  0  0  0  0  0  0  0  0  0
   51.4782   -6.2826   -7.2214 C   0  0  0  0  0  0  0  0  0  0  0  0
   52.8750   -5.4209   -7.7391 S   0  0  0  0  0  0  0  0  0  0  0  0
   51.8505   -6.5218   -3.1224 C   0  0  0  0  0  0  0  0  0  0  0  0
   51.2353   -5.5449   -2.2111 N   0  0  0  0  0  0  0  0  0  0  0  0
   52.3394   -4.9955   -1.4034 C   0  0  0  0  0  0  0  0  0  0  0  0
   50.6340   -4.4405   -2.8835 C   0  0  0  0  0  0  0  0  0  0  0  0
   49.3937   -4.7403   -3.6605 C   0  0  0  0  0  0  0  0  0  0  0  0
   49.1870   -3.7135   -4.7754 C   0  0  0  0  0  0  0  0  0  0  0  0
 20 19  1  0  0  0
 19 17  1  0  0  0
 17 18  1  0  0  0
 17 16  1  0  0  0
 16  1  1  0  0  0
  1  2  1  0  0  0
  2  3  2  0  0  0
  3  4  1  0  0  0
  4  5  2  0  0  0
  5  6  1  0  0  0
  6  7  2  0  0  0
  7  8  1  0  0  0
  8  9  1  0  0  0
  9 10  1  0  0  0
 10 11  1  0  0  0
 11 12  2  0  0  0
 12 13  1  0  0  0
 13 14  2  0  0  0
 14 15  1  0  0  0
 20 21  1  0  0  0
 12  1  1  0  0  0
  7  2  1  0  0  0
 15 11  1  0  0  0
M  END
> <minimizedAffinity>
-5.59913

> <CNNscore>
0.1918013692

> <CNNaffinity>
5.8907837868

> <CNN_VS>
1.1298604012

> <CNNaffinity_variance>
0.1235735565

$$$$
[H]c1sc2c(c1[H])C([H])(C([H])([H])N(C([H])([H])[H])C([H])([H])C([H])([H])C([H])([H])[H])c1c([H])c([H])c([H])c([H])c1C([H])([H])C([H])([H])C2([H])[H]


 21 23  0  0  0  0  0  0  0  0999 V2000
   53.9847   -5.6872   -5.6013 C   0  0  0  0  0  0  0  0  0  0  0  0
   52.8426   -5.6272   -4.6526 C   0  0  0  0  0  0  0  0  0  0  0  0
   53.3252   -5.9944   -3.4308 C   0  0  0  0  0  0  0  0  0  0  0  0
   52.4309   -6.0237   -2.3498 C   0  0  0  0  0  0  0  0  0  0  0  0
   51.1053   -5.6897   -2.5305 C   0  0  0  0  0  0  0  0  0  0  0  0
   50.6392   -5.3232   -3.7745 C   0  0  0  0  0  0  0  0  0  0  0  0
   51.4869   -5.2881   -4.8350 C   0  0  0  0  0  0  0  0  0  0  0  0
   50.6502   -4.9000   -6.0261 C   0  0  0  0  0  0  0  0  0  0  0  0
   50.2878   -6.1769   -6.7731 C   0  0  0  0  0  0  0  0  0  0  0  0
   51.4584   -6.6400   -7.6353 C   0  0  0  0  0  0  0  0  0  0  0  0
   52.4786   -5.5253   -7.6766 C   0  0  0  0  0  0  0  0  0  0  0  0
   53.5163   -5.0425   -6.8975 C   0  0  0  0  0  0  0  0  0  0  0  0
   54.1135   -3.9592   -7.3418 C   0  0  0  0  0  0  0  0  0  0  0  0
   53.6836   -3.3927   -8.5213 C   0  0  0  0  0  0  0  0  0  0  0  0
   52.3992   -4.4365   -8.9929 S   0  0  0  0  0  0  0  0  0  0  0  0
   55.2235   -5.1011   -5.0996 C   0  0  0  0  0  0  0  0  0  0  0  0
   56.4139   -5.9238   -5.3622 N   0  0  0  0  0  0  0  0  0  0  0  0
   56.0679   -7.2870   -4.9201 C   0  0  0  0  0  0  0  0  0  0  0  0
   56.7469   -6.0167   -6.7456 C   0  0  0  0  0  0  0  0  0  0  0  0
   57.2135   -4.7548   -7.3953 C   0  0  0  0  0  0  0  0  0  0  0  0
   57.2908   -4.9197   -8.9142 C   0  0  0  0  0  0  0  0  0  0  0  0
 20 19  1  0  0  0
 19 17  1  0  0  0
 17 18  1  0  0  0
 17 16  1  0  0  0
 16  1  1  0  0  0
  1  2  1  0  0  0
  2  3  2  0  0  0
  3  4  1  0  0  0
  4  5  2  0  0  0
  5  6  1  0  0  0
  6  7  2  0  0  0
  7  8  1  0  0  0
  8  9  1  0  0  0
  9 10  1  0  0  0
 10 11  1  0  0  0
 11 12  2  0  0  0
 12 13  1  0  0  0
 13 14  2  0  0  0
 14 15  1  0  0  0
 20 21  1  0  0  0
 12  1  1  0  0  0
  7  2  1  0  0  0
 15 11  1  0  0  0
M  END
> <minimizedAffinity>
-6.18371

> <CNNscore>
0.1827588677

> <CNNaffinity>
6.0567936897

> <CNN_VS>
1.1069327593

> <CNNaffinity_variance>
0.2276686430

$$$$
[H]c1nc(N([H])c2c([H])c([H])c([H])c([H])c2OC([H])([H])[H])nc(-c2c([H])c(Cl)c(N([H])C([H])([H])[C@]3([H])N(C([H])([H])[H])C([H])([H])C3([H])[H])c([H])c2F)c1[H]


 32 35  0  0  0  0  0  0  0  0999 V2000
   52.1229   -6.5234   -3.7660 C   0  0  0  0  0  0  0  0  0  0  0  0
   53.1348   -6.6805   -4.6461 C   0  0  0  0  0  0  0  0  0  0  0  0
   53.2292   -5.8784   -5.7941 C   0  0  0  0  0  0  0  0  0  0  0  0
   54.3111   -6.0914   -6.6103 F   0  0  0  0  0  0  0  0  0  0  0  0
   52.2826   -4.9241   -6.0261 C   0  0  0  0  0  0  0  0  0  0  0  0
   51.2291   -4.7557   -5.1144 C   0  0  0  0  0  0  0  0  0  0  0  0
   51.1787   -5.5589   -4.0114 C   0  0  0  0  0  0  0  0  0  0  0  0
   49.8249   -5.3103   -2.8824 Cl  0  0  0  0  0  0  0  0  0  0  0  0
   52.2975   -4.0107   -7.1669 C   0  0  0  0  0  0  0  0  0  0  0  0
   51.1867   -3.3150   -7.5552 C   0  0  0  0  0  0  0  0  0  0  0  0
   51.3392   -2.4400   -8.6505 C   0  0  0  0  0  0  0  0  0  0  0  0
   52.5301   -2.3370   -9.2375 N   0  0  0  0  0  0  0  0  0  0  0  0
   53.6157   -3.0024   -8.8737 C   0  0  0  0  0  0  0  0  0  0  0  0
   53.4671   -3.8415   -7.8231 N   0  0  0  0  0  0  0  0  0  0  0  0
   54.8830   -2.8951   -9.4982 N   0  0  0  0  0  0  0  0  0  0  0  0
   55.0175   -1.9966  -10.0651 H   0  0  0  0  0  0  0  0  0  0  0  0
   55.9520   -3.7858   -9.4714 C   0  0  0  0  0  0  0  0  0  0  0  0
   56.4472   -4.4705  -10.5492 C   0  0  0  0  0  0  0  0  0  0  0  0
   57.5300   -5.3509  -10.4337 C   0  0  0  0  0  0  0  0  0  0  0  0
   58.1460   -5.5694   -9.2368 C   0  0  0  0  0  0  0  0  0  0  0  0
   57.6595   -4.8889   -8.1463 C   0  0  0  0  0  0  0  0  0  0  0  0
   56.5941   -4.0214   -8.2540 C   0  0  0  0  0  0  0  0  0  0  0  0
   56.1241   -3.3483   -7.1380 O   0  0  0  0  0  0  0  0  0  0  0  0
   56.4130   -3.8831   -5.8632 C   0  0  0  0  0  0  0  0  0  0  0  0
   51.9891   -7.3054   -2.5733 N   0  0  0  0  0  0  0  0  0  0  0  0
   51.4447   -8.1954   -2.6508 H   0  0  0  0  0  0  0  0  0  0  0  0
   52.5450   -6.9450   -1.3103 C   0  0  0  0  0  0  0  0  0  0  0  0
   55.6587   -7.9965   -0.2339 C   0  0  0  0  0  0  0  0  0  0  0  0
   54.7139   -6.9073   -0.0919 N   0  0  0  0  0  0  0  0  0  0  0  0
   55.4327   -5.6356   -0.2663 C   0  0  0  0  0  0  0  0  0  0  0  0
   54.1231   -5.1051   -0.8598 C   0  0  0  0  0  0  0  0  0  0  0  0
   53.9855   -6.5721   -1.3036 C   0  0  0  0  0  0  0  0  0  0  0  0
 28 29  1  0  0  0
 29 30  1  0  0  0
 30 31  1  0  0  0
 31 32  1  0  0  0
 32 27  1  0  0  0
 27 25  1  0  0  0
 25  1  1  0  0  0
  1  2  2  0  0  0
  2  3  1  0  0  0
  3  4  1  0  0  0
  3  5  2  0  0  0
  5  6  1  0  0  0
  6  7  2  0  0  0
  7  8  1  0  0  0
  5  9  1  0  0  0
  9 10  2  0  0  0
 10 11  1  0  0  0
 11 12  2  0  0  0
 12 13  1  0  0  0
 13 15  1  0  0  0
 15 17  1  0  0  0
 17 18  2  0  0  0
 18 19  1  0  0  0
 19 20  2  0  0  0
 20 21  1  0  0  0
 21 22  2  0  0  0
 22 23  1  0  0  0
 23 24  1  0  0  0
 13 14  2  0  0  0
 32 29  1  0  0  0
  7  1  1  0  0  0
 14  9  1  0  0  0
 22 17  1  0  0  0
 25 26  1  0  0  0
 15 16  1  0  0  0
M  END
> <minimizedAffinity>
-8.28475

> <CNNscore>
0.8581818342

> <CNNaffinity>
7.7905707359

> <CNN_VS>
6.6857261658

> <CNNaffinity_variance>
0.0814165846

$$$$
[H]c1nc(N([H])c2c([H])c([H])c([H])c([H])c2OC([H])([H])[H])nc(-c2c([H])c(Cl)c(N([H])C([H])([H])[C@]3([H])N(C([H])([H])[H])C([H])([H])C3([H])[H])c([H])c2F)c1[H]


 32 35  0  0  0  0  0  0  0  0999 V2000
   51.3077   -6.1876   -3.8512 C   0  0  0  0  0  0  0  0  0  0  0  0
   52.4376   -6.4050   -4.5578 C   0  0  0  0  0  0  0  0  0  0  0  0
   52.7223   -5.6660   -5.7166 C   0  0  0  0  0  0  0  0  0  0  0  0
   53.9105   -5.9369   -6.3467 F   0  0  0  0  0  0  0  0  0  0  0  0
   51.8429   -4.7121   -6.1376 C   0  0  0  0  0  0  0  0  0  0  0  0
   50.6674   -4.4812   -5.4067 C   0  0  0  0  0  0  0  0  0  0  0  0
   50.4329   -5.2242   -4.2856 C   0  0  0  0  0  0  0  0  0  0  0  0
   48.9294   -4.8976   -3.3900 Cl  0  0  0  0  0  0  0  0  0  0  0  0
   52.0504   -3.8604   -7.3070 C   0  0  0  0  0  0  0  0  0  0  0  0
   51.2243   -2.8106   -7.5971 C   0  0  0  0  0  0  0  0  0  0  0  0
   51.5510   -2.0444   -8.7349 C   0  0  0  0  0  0  0  0  0  0  0  0
   52.6233   -2.3737   -9.4527 N   0  0  0  0  0  0  0  0  0  0  0  0
   53.4340   -3.3860   -9.1853 C   0  0  0  0  0  0  0  0  0  0  0  0
   53.1186   -4.1199   -8.0937 N   0  0  0  0  0  0  0  0  0  0  0  0
   54.5743   -3.7386   -9.9489 N   0  0  0  0  0  0  0  0  0  0  0  0
   54.4678   -3.5664  -11.0005 H   0  0  0  0  0  0  0  0  0  0  0  0
   55.7876   -4.2678   -9.5197 C   0  0  0  0  0  0  0  0  0  0  0  0
   56.1519   -4.4728   -8.2154 C   0  0  0  0  0  0  0  0  0  0  0  0
   57.3973   -5.0121   -7.8701 C   0  0  0  0  0  0  0  0  0  0  0  0
   58.3110   -5.3606   -8.8206 C   0  0  0  0  0  0  0  0  0  0  0  0
   57.9589   -5.1604  -10.1340 C   0  0  0  0  0  0  0  0  0  0  0  0
   56.7348   -4.6300  -10.4797 C   0  0  0  0  0  0  0  0  0  0  0  0
   56.4059   -4.4389  -11.8119 O   0  0  0  0  0  0  0  0  0  0  0  0
   57.4043   -3.9525  -12.6844 C   0  0  0  0  0  0  0  0  0  0  0  0
   50.9776   -6.9037   -2.6553 N   0  0  0  0  0  0  0  0  0  0  0  0
   50.5004   -7.8270   -2.7743 H   0  0  0  0  0  0  0  0  0  0  0  0
   51.2572   -6.4369   -1.3369 C   0  0  0  0  0  0  0  0  0  0  0  0
   54.4119   -7.8531   -1.3003 C   0  0  0  0  0  0  0  0  0  0  0  0
   53.0068   -8.2041   -1.2605 N   0  0  0  0  0  0  0  0  0  0  0  0
   52.7915   -9.1588   -0.1621 C   0  0  0  0  0  0  0  0  0  0  0  0
   51.4042   -8.5212   -0.0285 C   0  0  0  0  0  0  0  0  0  0  0  0
   52.1695   -7.2786   -0.5165 C   0  0  0  0  0  0  0  0  0  0  0  0
 28 29  1  0  0  0
 29 30  1  0  0  0
 30 31  1  0  0  0
 31 32  1  0  0  0
 32 27  1  0  0  0
 27 25  1  0  0  0
 25  1  1  0  0  0
  1  2  2  0  0  0
  2  3  1  0  0  0
  3  4  1  0  0  0
  3  5  2  0  0  0
  5  6  1  0  0  0
  6  7  2  0  0  0
  7  8  1  0  0  0
  5  9  1  0  0  0
  9 10  2  0  0  0
 10 11  1  0  0  0
 11 12  2  0  0  0
 12 13  1  0  0  0
 13 15  1  0  0  0
 15 17  1  0  0  0
 17 18  2  0  0  0
 18 19  1  0  0  0
 19 20  2  0  0  0
 20 21  1  0  0  0
 21 22  2  0  0  0
 22 23  1  0  0  0
 23 24  1  0  0  0
 13 14  2  0  0  0
 32 29  1  0  0  0
  7  1  1  0  0  0
 14  9  1  0  0  0
 22 17  1  0  0  0
 25 26  1  0  0  0
 15 16  1  0  0  0
M  END
> <minimizedAffinity>
-9.37866

> <CNNscore>
0.8492049575

> <CNNaffinity>
7.7928366661

> <CNN_VS>
6.6177153587

> <CNNaffinity_variance>
0.0868527070

$$$$
[H]c1nc(N([H])c2c([H])c([H])c([H])c([H])c2OC([H])([H])[H])nc(-c2c([H])c(Cl)c(N([H])C([H])([H])[C@]3([H])N(C([H])([H])[H])C([H])([H])C3([H])[H])c([H])c2F)c1[H]


 32 35  0  0  0  0  0  0  0  0999 V2000
   58.0296   -5.1714   -9.3986 C   0  0  0  0  0  0  0  0  0  0  0  0
   57.6019   -5.2301   -8.1193 C   0  0  0  0  0  0  0  0  0  0  0  0
   56.3230   -4.7767   -7.7601 C   0  0  0  0  0  0  0  0  0  0  0  0
   55.9676   -4.9086   -6.4416 F   0  0  0  0  0  0  0  0  0  0  0  0
   55.4975   -4.2671   -8.7190 C   0  0  0  0  0  0  0  0  0  0  0  0
   55.9364   -4.2045  -10.0505 C   0  0  0  0  0  0  0  0  0  0  0  0
   57.1884   -4.6577  -10.3528 C   0  0  0  0  0  0  0  0  0  0  0  0
   57.7032   -4.5587  -12.0540 Cl  0  0  0  0  0  0  0  0  0  0  0  0
   54.1362   -3.7981   -8.4682 C   0  0  0  0  0  0  0  0  0  0  0  0
   53.6786   -2.6039   -8.9511 C   0  0  0  0  0  0  0  0  0  0  0  0
   52.3355   -2.2803   -8.6687 C   0  0  0  0  0  0  0  0  0  0  0  0
   51.5971   -3.1348   -7.9629 N   0  0  0  0  0  0  0  0  0  0  0  0
   52.0241   -4.2952   -7.4888 C   0  0  0  0  0  0  0  0  0  0  0  0
   53.3129   -4.6033   -7.7605 N   0  0  0  0  0  0  0  0  0  0  0  0
   51.2402   -5.2045   -6.7363 N   0  0  0  0  0  0  0  0  0  0  0  0
   50.7726   -5.9691   -7.3224 H   0  0  0  0  0  0  0  0  0  0  0  0
   51.0040   -5.2325   -5.3652 C   0  0  0  0  0  0  0  0  0  0  0  0
   49.9052   -4.7129   -4.7341 C   0  0  0  0  0  0  0  0  0  0  0  0
   49.7462   -4.7843   -3.3446 C   0  0  0  0  0  0  0  0  0  0  0  0
   50.6823   -5.3775   -2.5499 C   0  0  0  0  0  0  0  0  0  0  0  0
   51.7906   -5.9034   -3.1698 C   0  0  0  0  0  0  0  0  0  0  0  0
   51.9524   -5.8360   -4.5367 C   0  0  0  0  0  0  0  0  0  0  0  0
   53.0797   -6.3747   -5.1354 O   0  0  0  0  0  0  0  0  0  0  0  0
   54.1242   -6.8344   -4.3032 C   0  0  0  0  0  0  0  0  0  0  0  0
   59.3186   -5.6337   -9.8192 N   0  0  0  0  0  0  0  0  0  0  0  0
   59.5029   -5.6462  -10.8489 H   0  0  0  0  0  0  0  0  0  0  0  0
   60.3445   -6.0703   -8.9297 C   0  0  0  0  0  0  0  0  0  0  0  0
   61.7055   -8.9636  -10.2472 C   0  0  0  0  0  0  0  0  0  0  0  0
   61.9059   -7.9892   -9.1938 N   0  0  0  0  0  0  0  0  0  0  0  0
   63.3153   -7.5675   -9.2052 C   0  0  0  0  0  0  0  0  0  0  0  0
   62.7970   -6.2093   -8.7198 C   0  0  0  0  0  0  0  0  0  0  0  0
   61.5748   -6.6223   -9.5587 C   0  0  0  0  0  0  0  0  0  0  0  0
 28 29  1  0  0  0
 29 30  1  0  0  0
 30 31  1  0  0  0
 31 32  1  0  0  0
 32 27  1  0  0  0
 27 25  1  0  0  0
 25  1  1  0  0  0
  1  2  2  0  0  0
  2  3  1  0  0  0
  3  4  1  0  0  0
  3  5  2  0  0  0
  5  6  1  0  0  0
  6  7  2  0  0  0
  7  8  1  0  0  0
  5  9  1  0  0  0
  9 10  2  0  0  0
 10 11  1  0  0  0
 11 12  2  0  0  0
 12 13  1  0  0  0
 13 15  1  0  0  0
 15 17  1  0  0  0
 17 18  2  0  0  0
 18 19  1  0  0  0
 19 20  2  0  0  0
 20 21  1  0  0  0
 21 22  2  0  0  0
 22 23  1  0  0  0
 23 24  1  0  0  0
 13 14  2  0  0  0
 32 29  1  0  0  0
  7  1  1  0  0  0
 14  9  1  0  0  0
 22 17  1  0  0  0
 25 26  1  0  0  0
 15 16  1  0  0  0
M  END
> <minimizedAffinity>
-9.29399

> <CNNscore>
0.4712031186

> <CNNaffinity>
7.1348052025

> <CNN_VS>
3.3619425297

> <CNNaffinity_variance>
0.0432605185

$$$$
[H]c1nc(N([H])c2c([H])c([H])c([H])c([H])c2OC([H])([H])[H])nc(-c2c([H])c(Cl)c(N([H])C([H])([H])[C@]3([H])N(C([H])([H])[H])C([H])([H])C3([H])[H])c([H])c2F)c1[H]


 32 35  0  0  0  0  0  0  0  0999 V2000
   58.1585   -5.2998   -9.3609 C   0  0  0  0  0  0  0  0  0  0  0  0
   57.7071   -5.3513   -8.0894 C   0  0  0  0  0  0  0  0  0  0  0  0
   56.4361   -4.8617   -7.7501 C   0  0  0  0  0  0  0  0  0  0  0  0
   56.0542   -4.9887   -6.4385 F   0  0  0  0  0  0  0  0  0  0  0  0
   55.6428   -4.3239   -8.7206 C   0  0  0  0  0  0  0  0  0  0  0  0
   56.1063   -4.2686  -10.0440 C   0  0  0  0  0  0  0  0  0  0  0  0
   57.3494   -4.7574  -10.3269 C   0  0  0  0  0  0  0  0  0  0  0  0
   57.8963   -4.6664  -12.0186 Cl  0  0  0  0  0  0  0  0  0  0  0  0
   54.2918   -3.8159   -8.4909 C   0  0  0  0  0  0  0  0  0  0  0  0
   53.8778   -2.6070   -8.9767 C   0  0  0  0  0  0  0  0  0  0  0  0
   52.5401   -2.2451   -8.7157 C   0  0  0  0  0  0  0  0  0  0  0  0
   51.7650   -3.0799   -8.0259 N   0  0  0  0  0  0  0  0  0  0  0  0
   52.1496   -4.2540   -7.5494 C   0  0  0  0  0  0  0  0  0  0  0  0
   53.4332   -4.5990   -7.8005 N   0  0  0  0  0  0  0  0  0  0  0  0
   51.3266   -5.1425   -6.8140 N   0  0  0  0  0  0  0  0  0  0  0  0
   50.7390   -5.7999   -7.4216 H   0  0  0  0  0  0  0  0  0  0  0  0
   51.1857   -5.2692   -5.4353 C   0  0  0  0  0  0  0  0  0  0  0  0
   51.9769   -6.0333   -4.6193 C   0  0  0  0  0  0  0  0  0  0  0  0
   51.7647   -6.1045   -3.2369 C   0  0  0  0  0  0  0  0  0  0  0  0
   50.7553   -5.4131   -2.6346 C   0  0  0  0  0  0  0  0  0  0  0  0
   49.9532   -4.6419   -3.4413 C   0  0  0  0  0  0  0  0  0  0  0  0
   50.1573   -4.5681   -4.8022 C   0  0  0  0  0  0  0  0  0  0  0  0
   49.3333   -3.7826   -5.5919 O   0  0  0  0  0  0  0  0  0  0  0  0
   48.7999   -2.6003   -5.0331 C   0  0  0  0  0  0  0  0  0  0  0  0
   59.4404   -5.7982   -9.7615 N   0  0  0  0  0  0  0  0  0  0  0  0
   59.5936   -5.9370  -10.7869 H   0  0  0  0  0  0  0  0  0  0  0  0
   60.4985   -6.1107   -8.8576 C   0  0  0  0  0  0  0  0  0  0  0  0
   62.7325   -6.5483  -11.4610 C   0  0  0  0  0  0  0  0  0  0  0  0
   61.6024   -7.1824  -10.8129 N   0  0  0  0  0  0  0  0  0  0  0  0
   61.9337   -8.5942  -10.5651 C   0  0  0  0  0  0  0  0  0  0  0  0
   61.0442   -8.4694   -9.3233 C   0  0  0  0  0  0  0  0  0  0  0  0
   61.5592   -7.0200   -9.3696 C   0  0  0  0  0  0  0  0  0  0  0  0
 28 29  1  0  0  0
 29 30  1  0  0  0
 30 31  1  0  0  0
 31 32  1  0  0  0
 32 27  1  0  0  0
 27 25  1  0  0  0
 25  1  1  0  0  0
  1  2  2  0  0  0
  2  3  1  0  0  0
  3  4  1  0  0  0
  3  5  2  0  0  0
  5  6  1  0  0  0
  6  7  2  0  0  0
  7  8  1  0  0  0
  5  9  1  0  0  0
  9 10  2  0  0  0
 10 11  1  0  0  0
 11 12  2  0  0  0
 12 13  1  0  0  0
 13 15  1  0  0  0
 15 17  1  0  0  0
 17 18  2  0  0  0
 18 19  1  0  0  0
 19 20  2  0  0  0
 20 21  1  0  0  0
 21 22  2  0  0  0
 22 23  1  0  0  0
 23 24  1  0  0  0
 13 14  2  0  0  0
 32 29  1  0  0  0
  7  1  1  0  0  0
 14  9  1  0  0  0
 22 17  1  0  0  0
 25 26  1  0  0  0
 15 16  1  0  0  0
M  END
> <minimizedAffinity>
-9.41601

> <CNNscore>
0.4025647342

> <CNNaffinity>
7.0210442543

> <CNN_VS>
2.8264248371

> <CNNaffinity_variance>
0.0527772531

$$$$
[H]c1nc(N([H])c2c([H])c([H])c([H])c([H])c2OC([H])([H])[H])nc(-c2c([H])c(Cl)c(N([H])C([H])([H])[C@]3([H])N(C([H])([H])[H])C([H])([H])C3([H])[H])c([H])c2F)c1[H]


 32 35  0  0  0  0  0  0  0  0999 V2000
   57.5959   -5.3795   -8.3863 C   0  0  0  0  0  0  0  0  0  0  0  0
   57.0925   -4.7849   -9.4892 C   0  0  0  0  0  0  0  0  0  0  0  0
   55.7959   -4.2475   -9.4961 C   0  0  0  0  0  0  0  0  0  0  0  0
   55.3865   -3.6346  -10.6532 F   0  0  0  0  0  0  0  0  0  0  0  0
   55.0300   -4.3273   -8.3702 C   0  0  0  0  0  0  0  0  0  0  0  0
   55.5483   -4.9433   -7.2208 C   0  0  0  0  0  0  0  0  0  0  0  0
   56.8149   -5.4515   -7.2608 C   0  0  0  0  0  0  0  0  0  0  0  0
   57.4312   -6.2241   -5.7801 Cl  0  0  0  0  0  0  0  0  0  0  0  0
   53.6825   -3.7742   -8.2510 C   0  0  0  0  0  0  0  0  0  0  0  0
   53.3278   -2.5919   -8.8384 C   0  0  0  0  0  0  0  0  0  0  0  0
   51.9880   -2.1826   -8.6775 C   0  0  0  0  0  0  0  0  0  0  0  0
   51.1546   -2.9508   -7.9784 N   0  0  0  0  0  0  0  0  0  0  0  0
   51.4813   -4.0984   -7.4041 C   0  0  0  0  0  0  0  0  0  0  0  0
   52.7671   -4.4889   -7.5593 N   0  0  0  0  0  0  0  0  0  0  0  0
   50.5962   -4.9160   -6.6587 N   0  0  0  0  0  0  0  0  0  0  0  0
   49.8135   -5.3584   -7.2405 H   0  0  0  0  0  0  0  0  0  0  0  0
   50.6112   -5.2123   -5.2990 C   0  0  0  0  0  0  0  0  0  0  0  0
   51.5060   -6.0383   -4.6723 C   0  0  0  0  0  0  0  0  0  0  0  0
   51.4492   -6.2826   -3.2946 C   0  0  0  0  0  0  0  0  0  0  0  0
   50.4957   -5.7071   -2.5076 C   0  0  0  0  0  0  0  0  0  0  0  0
   49.5908   -4.8756   -3.1233 C   0  0  0  0  0  0  0  0  0  0  0  0
   49.6419   -4.6315   -4.4786 C   0  0  0  0  0  0  0  0  0  0  0  0
   48.7169   -3.7888   -5.0733 O   0  0  0  0  0  0  0  0  0  0  0  0
   48.8974   -2.3946   -4.9371 C   0  0  0  0  0  0  0  0  0  0  0  0
   58.9168   -5.9302   -8.3230 N   0  0  0  0  0  0  0  0  0  0  0  0
   59.2434   -6.2673   -7.3881 H   0  0  0  0  0  0  0  0  0  0  0  0
   59.7948   -6.0415   -9.4414 C   0  0  0  0  0  0  0  0  0  0  0  0
   61.8703   -7.5998   -7.1560 C   0  0  0  0  0  0  0  0  0  0  0  0
   61.9041   -6.7438   -8.3245 N   0  0  0  0  0  0  0  0  0  0  0  0
   62.8885   -7.2842   -9.2749 C   0  0  0  0  0  0  0  0  0  0  0  0
   61.9758   -6.7199  -10.3693 C   0  0  0  0  0  0  0  0  0  0  0  0
   60.8922   -7.0395   -9.3244 C   0  0  0  0  0  0  0  0  0  0  0  0
 28 29  1  0  0  0
 29 30  1  0  0  0
 30 31  1  0  0  0
 31 32  1  0  0  0
 32 27  1  0  0  0
 27 25  1  0  0  0
 25  1  1  0  0  0
  1  2  2  0  0  0
  2  3  1  0  0  0
  3  4  1  0  0  0
  3  5  2  0  0  0
  5  6  1  0  0  0
  6  7  2  0  0  0
  7  8  1  0  0  0
  5  9  1  0  0  0
  9 10  2  0  0  0
 10 11  1  0  0  0
 11 12  2  0  0  0
 12 13  1  0  0  0
 13 15  1  0  0  0
 15 17  1  0  0  0
 17 18  2  0  0  0
 18 19  1  0  0  0
 19 20  2  0  0  0
 20 21  1  0  0  0
 21 22  2  0  0  0
 22 23  1  0  0  0
 23 24  1  0  0  0
 13 14  2  0  0  0
 32 29  1  0  0  0
  7  1  1  0  0  0
 14  9  1  0  0  0
 22 17  1  0  0  0
 25 26  1  0  0  0
 15 16  1  0  0  0
M  END
> <minimizedAffinity>
-8.38402

> <CNNscore>
0.3455349803

> <CNNaffinity>
7.0865707397

> <CNN_VS>
2.4486579895

> <CNNaffinity_variance>
0.0269253254

$$$$
[H]c1nc(N([H])c2c([H])c([H])c([H])c([H])c2OC([H])([H])[H])nc(-c2c([H])c(Cl)c(N([H])C([H])([H])[C@]3([H])N(C([H])([H])[H])C([H])([H])C3([H])[H])c([H])c2F)c1[H]


 32 35  0  0  0  0  0  0  0  0999 V2000
   52.8217   -4.2192   -7.3571 C   0  0  0  0  0  0  0  0  0  0  0  0
   53.6982   -5.1481   -6.9189 C   0  0  0  0  0  0  0  0  0  0  0  0
   54.9202   -5.3601   -7.5762 C   0  0  0  0  0  0  0  0  0  0  0  0
   55.7579   -6.3027   -7.0360 F   0  0  0  0  0  0  0  0  0  0  0  0
   55.2282   -4.6160   -8.6772 C   0  0  0  0  0  0  0  0  0  0  0  0
   54.3215   -3.6484   -9.1365 C   0  0  0  0  0  0  0  0  0  0  0  0
   53.1453   -3.4772   -8.4647 C   0  0  0  0  0  0  0  0  0  0  0  0
   52.0253   -2.2392   -9.0829 Cl  0  0  0  0  0  0  0  0  0  0  0  0
   56.4823   -4.7255   -9.4196 C   0  0  0  0  0  0  0  0  0  0  0  0
   57.4941   -5.5527   -9.0187 C   0  0  0  0  0  0  0  0  0  0  0  0
   58.6400   -5.5941   -9.8394 C   0  0  0  0  0  0  0  0  0  0  0  0
   58.6779   -4.8434  -10.9388 N   0  0  0  0  0  0  0  0  0  0  0  0
   57.7070   -4.0381  -11.3418 C   0  0  0  0  0  0  0  0  0  0  0  0
   56.6090   -3.9996  -10.5528 N   0  0  0  0  0  0  0  0  0  0  0  0
   57.7465   -3.2377  -12.5103 N   0  0  0  0  0  0  0  0  0  0  0  0
   58.1280   -2.2497  -12.3519 H   0  0  0  0  0  0  0  0  0  0  0  0
   57.3625   -3.5612  -13.8082 C   0  0  0  0  0  0  0  0  0  0  0  0
   56.0856   -3.8425  -14.2157 C   0  0  0  0  0  0  0  0  0  0  0  0
   55.7856   -4.1598  -15.5463 C   0  0  0  0  0  0  0  0  0  0  0  0
   56.7553   -4.2040  -16.5041 C   0  0  0  0  0  0  0  0  0  0  0  0
   58.0417   -3.9239  -16.1094 C   0  0  0  0  0  0  0  0  0  0  0  0
   58.3427   -3.6111  -14.8015 C   0  0  0  0  0  0  0  0  0  0  0  0
   59.6484   -3.3329  -14.4312 O   0  0  0  0  0  0  0  0  0  0  0  0
   60.5838   -3.0382  -15.4475 C   0  0  0  0  0  0  0  0  0  0  0  0
   51.5693   -3.9543   -6.7143 N   0  0  0  0  0  0  0  0  0  0  0  0
   51.1748   -2.9920   -6.8272 H   0  0  0  0  0  0  0  0  0  0  0  0
   50.8445   -4.9104   -5.9431 C   0  0  0  0  0  0  0  0  0  0  0  0
   52.6672   -6.4062   -3.4133 C   0  0  0  0  0  0  0  0  0  0  0  0
   51.3055   -6.1795   -3.8533 N   0  0  0  0  0  0  0  0  0  0  0  0
   50.5187   -5.6855   -2.7125 C   0  0  0  0  0  0  0  0  0  0  0  0
   49.7148   -4.8964   -3.7518 C   0  0  0  0  0  0  0  0  0  0  0  0
   51.0741   -4.8858   -4.4732 C   0  0  0  0  0  0  0  0  0  0  0  0
 28 29  1  0  0  0
 29 30  1  0  0  0
 30 31  1  0  0  0
 31 32  1  0  0  0
 32 27  1  0  0  0
 27 25  1  0  0  0
 25  1  1  0  0  0
  1  2  2  0  0  0
  2  3  1  0  0  0
  3  4  1  0  0  0
  3  5  2  0  0  0
  5  6  1  0  0  0
  6  7  2  0  0  0
  7  8  1  0  0  0
  5  9  1  0  0  0
  9 10  2  0  0  0
 10 11  1  0  0  0
 11 12  2  0  0  0
 12 13  1  0  0  0
 13 15  1  0  0  0
 15 17  1  0  0  0
 17 18  2  0  0  0
 18 19  1  0  0  0
 19 20  2  0  0  0
 20 21  1  0  0  0
 21 22  2  0  0  0
 22 23  1  0  0  0
 23 24  1  0  0  0
 13 14  2  0  0  0
 32 29  1  0  0  0
  7  1  1  0  0  0
 14  9  1  0  0  0
 22 17  1  0  0  0
 25 26  1  0  0  0
 15 16  1  0  0  0
M  END
> <minimizedAffinity>
-8.25018

> <CNNscore>
0.3297509253

> <CNNaffinity>
6.7144079208

> <CNN_VS>
2.2140822411

> <CNNaffinity_variance>
0.2812670767

$$$$
[H]c1nc(N([H])c2c([H])c([H])c([H])c([H])c2OC([H])([H])[H])nc(-c2c([H])c(Cl)c(N([H])C([H])([H])[C@]3([H])N(C([H])([H])[H])C([H])([H])C3([H])[H])c([H])c2F)c1[H]


 32 35  0  0  0  0  0  0  0  0999 V2000
   53.1822   -4.4614   -7.1985 C   0  0  0  0  0  0  0  0  0  0  0  0
   54.1403   -5.2837   -6.7200 C   0  0  0  0  0  0  0  0  0  0  0  0
   55.3442   -5.4774   -7.4152 C   0  0  0  0  0  0  0  0  0  0  0  0
   56.2690   -6.3060   -6.8319 F   0  0  0  0  0  0  0  0  0  0  0  0
   55.5506   -4.8248   -8.5951 C   0  0  0  0  0  0  0  0  0  0  0  0
   54.5587   -3.9681   -9.0968 C   0  0  0  0  0  0  0  0  0  0  0  0
   53.4039   -3.8105   -8.3856 C   0  0  0  0  0  0  0  0  0  0  0  0
   52.1736   -2.7147   -9.0599 Cl  0  0  0  0  0  0  0  0  0  0  0  0
   56.7755   -4.9229   -9.3862 C   0  0  0  0  0  0  0  0  0  0  0  0
   56.8616   -4.4260  -10.6568 C   0  0  0  0  0  0  0  0  0  0  0  0
   58.1087   -4.5530  -11.3025 C   0  0  0  0  0  0  0  0  0  0  0  0
   59.1169   -5.1364  -10.6569 N   0  0  0  0  0  0  0  0  0  0  0  0
   59.0508   -5.6219   -9.4266 C   0  0  0  0  0  0  0  0  0  0  0  0
   57.8535   -5.4994   -8.8093 N   0  0  0  0  0  0  0  0  0  0  0  0
   60.1221   -6.2442   -8.7391 N   0  0  0  0  0  0  0  0  0  0  0  0
   60.2061   -5.9604   -7.7100 H   0  0  0  0  0  0  0  0  0  0  0  0
   61.0586   -7.1561   -9.2168 C   0  0  0  0  0  0  0  0  0  0  0  0
   60.7723   -8.3502   -9.8233 C   0  0  0  0  0  0  0  0  0  0  0  0
   61.7794   -9.2115  -10.2758 C   0  0  0  0  0  0  0  0  0  0  0  0
   63.0996   -8.9008  -10.1334 C   0  0  0  0  0  0  0  0  0  0  0  0
   63.4019   -7.7053   -9.5264 C   0  0  0  0  0  0  0  0  0  0  0  0
   62.4149   -6.8538   -9.0791 C   0  0  0  0  0  0  0  0  0  0  0  0
   62.7481   -5.6546   -8.4705 O   0  0  0  0  0  0  0  0  0  0  0  0
   64.0512   -5.5103   -7.9452 C   0  0  0  0  0  0  0  0  0  0  0  0
   51.9436   -4.2185   -6.5212 N   0  0  0  0  0  0  0  0  0  0  0  0
   51.8570   -3.3122   -6.0060 H   0  0  0  0  0  0  0  0  0  0  0  0
   50.8436   -5.1262   -6.5094 C   0  0  0  0  0  0  0  0  0  0  0  0
   48.8285   -4.1548   -3.8721 C   0  0  0  0  0  0  0  0  0  0  0  0
   50.2008   -4.4933   -4.1907 N   0  0  0  0  0  0  0  0  0  0  0  0
   50.6924   -5.4539   -3.1907 C   0  0  0  0  0  0  0  0  0  0  0  0
   51.5491   -6.0264   -4.3253 C   0  0  0  0  0  0  0  0  0  0  0  0
   50.3534   -5.5545   -5.1713 C   0  0  0  0  0  0  0  0  0  0  0  0
 28 29  1  0  0  0
 29 30  1  0  0  0
 30 31  1  0  0  0
 31 32  1  0  0  0
 32 27  1  0  0  0
 27 25  1  0  0  0
 25  1  1  0  0  0
  1  2  2  0  0  0
  2  3  1  0  0  0
  3  4  1  0  0  0
  3  5  2  0  0  0
  5  6  1  0  0  0
  6  7  2  0  0  0
  7  8  1  0  0  0
  5  9  1  0  0  0
  9 10  2  0  0  0
 10 11  1  0  0  0
 11 12  2  0  0  0
 12 13  1  0  0  0
 13 15  1  0  0  0
 15 17  1  0  0  0
 17 18  2  0  0  0
 18 19  1  0  0  0
 19 20  2  0  0  0
 20 21  1  0  0  0
 21 22  2  0  0  0
 22 23  1  0  0  0
 23 24  1  0  0  0
 13 14  2  0  0  0
 32 29  1  0  0  0
  7  1  1  0  0  0
 14  9  1  0  0  0
 22 17  1  0  0  0
 25 26  1  0  0  0
 15 16  1  0  0  0
M  END
> <minimizedAffinity>
-8.07432

> <CNNscore>
0.2943134606

> <CNNaffinity>
6.1407690048

> <CNN_VS>
1.8073109388

> <CNNaffinity_variance>
0.4419209361

$$$$
[H]c1nc(N([H])c2c([H])c([H])c([H])c([H])c2OC([H])([H])[H])nc(-c2c([H])c(Cl)c(N([H])C([H])([H])[C@]3([H])N(C([H])([H])[H])C([H])([H])C3([H])[H])c([H])c2F)c1[H]


 32 35  0  0  0  0  0  0  0  0999 V2000
   57.2002   -4.5315  -10.3581 C   0  0  0  0  0  0  0  0  0  0  0  0
   55.9052   -4.1592  -10.2711 C   0  0  0  0  0  0  0  0  0  0  0  0
   55.1591   -4.3950   -9.1058 C   0  0  0  0  0  0  0  0  0  0  0  0
   53.8611   -3.9506   -9.1020 F   0  0  0  0  0  0  0  0  0  0  0  0
   55.7511   -5.0113   -8.0427 C   0  0  0  0  0  0  0  0  0  0  0  0
   57.0970   -5.3995   -8.1271 C   0  0  0  0  0  0  0  0  0  0  0  0
   57.7831   -5.1491   -9.2807 C   0  0  0  0  0  0  0  0  0  0  0  0
   59.4876   -5.6590   -9.3432 Cl  0  0  0  0  0  0  0  0  0  0  0  0
   55.0840   -5.2769   -6.7697 C   0  0  0  0  0  0  0  0  0  0  0  0
   55.7753   -5.3801   -5.5949 C   0  0  0  0  0  0  0  0  0  0  0  0
   55.0129   -5.6047   -4.4301 C   0  0  0  0  0  0  0  0  0  0  0  0
   53.6885   -5.7018   -4.5304 N   0  0  0  0  0  0  0  0  0  0  0  0
   53.0036   -5.6034   -5.6595 C   0  0  0  0  0  0  0  0  0  0  0  0
   53.7369   -5.3884   -6.7756 N   0  0  0  0  0  0  0  0  0  0  0  0
   51.5948   -5.7081   -5.7680 N   0  0  0  0  0  0  0  0  0  0  0  0
   51.2556   -6.6295   -6.1955 H   0  0  0  0  0  0  0  0  0  0  0  0
   50.6162   -4.7898   -5.3996 C   0  0  0  0  0  0  0  0  0  0  0  0
   49.8998   -4.8122   -4.2326 C   0  0  0  0  0  0  0  0  0  0  0  0
   48.9297   -3.8456   -3.9402 C   0  0  0  0  0  0  0  0  0  0  0  0
   48.6508   -2.8310   -4.8077 C   0  0  0  0  0  0  0  0  0  0  0  0
   49.3622   -2.7959   -5.9832 C   0  0  0  0  0  0  0  0  0  0  0  0
   50.3179   -3.7445   -6.2762 C   0  0  0  0  0  0  0  0  0  0  0  0
   51.0204   -3.6850   -7.4689 O   0  0  0  0  0  0  0  0  0  0  0  0
   51.2960   -2.4143   -8.0204 C   0  0  0  0  0  0  0  0  0  0  0  0
   58.0088   -4.3012  -11.5179 N   0  0  0  0  0  0  0  0  0  0  0  0
   58.9426   -4.7720  -11.5436 H   0  0  0  0  0  0  0  0  0  0  0  0
   57.6197   -3.4810  -12.6179 C   0  0  0  0  0  0  0  0  0  0  0  0
   57.8850   -3.0128  -16.0341 C   0  0  0  0  0  0  0  0  0  0  0  0
   56.9228   -3.3428  -15.0023 N   0  0  0  0  0  0  0  0  0  0  0  0
   56.1589   -4.5243  -15.4324 C   0  0  0  0  0  0  0  0  0  0  0  0
   56.0777   -4.8758  -13.9428 C   0  0  0  0  0  0  0  0  0  0  0  0
   57.4441   -4.1681  -13.9260 C   0  0  0  0  0  0  0  0  0  0  0  0
 28 29  1  0  0  0
 29 30  1  0  0  0
 30 31  1  0  0  0
 31 32  1  0  0  0
 32 27  1  0  0  0
 27 25  1  0  0  0
 25  1  1  0  0  0
  1  2  2  0  0  0
  2  3  1  0  0  0
  3  4  1  0  0  0
  3  5  2  0  0  0
  5  6  1  0  0  0
  6  7  2  0  0  0
  7  8  1  0  0  0
  5  9  1  0  0  0
  9 10  2  0  0  0
 10 11  1  0  0  0
 11 12  2  0  0  0
 12 13  1  0  0  0
 13 15  1  0  0  0
 15 17  1  0  0  0
 17 18  2  0  0  0
 18 19  1  0  0  0
 19 20  2  0  0  0
 20 21  1  0  0  0
 21 22  2  0  0  0
 22 23  1  0  0  0
 23 24  1  0  0  0
 13 14  2  0  0  0
 32 29  1  0  0  0
  7  1  1  0  0  0
 14  9  1  0  0  0
 22 17  1  0  0  0
 25 26  1  0  0  0
 15 16  1  0  0  0
M  END
> <minimizedAffinity>
-9.79363

> <CNNscore>
0.2859482765

> <CNNaffinity>
6.8536887169

> <CNN_VS>
1.9598004818

> <CNNaffinity_variance>
0.2046679705

$$$$
[H]c1nc(N([H])c2c([H])c([H])c([H])c([H])c2OC([H])([H])[H])nc(-c2c([H])c(Cl)c(N([H])C([H])([H])[C@]3([H])N(C([H])([H])[H])C([H])([H])C3([H])[H])c([H])c2F)c1[H]


 32 35  0  0  0  0  0  0  0  0999 V2000
   53.1836   -4.2298   -7.6664 C   0  0  0  0  0  0  0  0  0  0  0  0
   53.2838   -3.7719   -8.9327 C   0  0  0  0  0  0  0  0  0  0  0  0
   54.4814   -3.8914   -9.6549 C   0  0  0  0  0  0  0  0  0  0  0  0
   54.4745   -3.4260  -10.9455 F   0  0  0  0  0  0  0  0  0  0  0  0
   55.5635   -4.4792   -9.0683 C   0  0  0  0  0  0  0  0  0  0  0  0
   55.4648   -4.9578   -7.7528 C   0  0  0  0  0  0  0  0  0  0  0  0
   54.2794   -4.8200   -7.0894 C   0  0  0  0  0  0  0  0  0  0  0  0
   54.2000   -5.4410   -5.4230 Cl  0  0  0  0  0  0  0  0  0  0  0  0
   56.8478   -4.6881   -9.7337 C   0  0  0  0  0  0  0  0  0  0  0  0
   57.7948   -5.5383   -9.2347 C   0  0  0  0  0  0  0  0  0  0  0  0
   58.9788   -5.6785   -9.9877 C   0  0  0  0  0  0  0  0  0  0  0  0
   59.1116   -4.9922  -11.1213 N   0  0  0  0  0  0  0  0  0  0  0  0
   58.2044   -4.1659  -11.6190 C   0  0  0  0  0  0  0  0  0  0  0  0
   57.0697   -4.0326  -10.8948 N   0  0  0  0  0  0  0  0  0  0  0  0
   58.3449   -3.4339  -12.8240 N   0  0  0  0  0  0  0  0  0  0  0  0
   59.0408   -2.6222  -12.7650 H   0  0  0  0  0  0  0  0  0  0  0  0
   57.7101   -3.6283  -14.0471 C   0  0  0  0  0  0  0  0  0  0  0  0
   56.4322   -4.0901  -14.2183 C   0  0  0  0  0  0  0  0  0  0  0  0
   55.8689   -4.2571  -15.4895 C   0  0  0  0  0  0  0  0  0  0  0  0
   56.5694   -3.9664  -16.6229 C   0  0  0  0  0  0  0  0  0  0  0  0
   57.8535   -3.5020  -16.4662 C   0  0  0  0  0  0  0  0  0  0  0  0
   58.4129   -3.3358  -15.2178 C   0  0  0  0  0  0  0  0  0  0  0  0
   59.7098   -2.8657  -15.0890 O   0  0  0  0  0  0  0  0  0  0  0  0
   60.6948   -3.3710  -15.9661 C   0  0  0  0  0  0  0  0  0  0  0  0
   51.9814   -4.1454   -6.8921 N   0  0  0  0  0  0  0  0  0  0  0  0
   51.7743   -3.2248   -6.4404 H   0  0  0  0  0  0  0  0  0  0  0  0
   51.0690   -5.2256   -6.7056 C   0  0  0  0  0  0  0  0  0  0  0  0
   48.8342   -2.9246   -5.4132 C   0  0  0  0  0  0  0  0  0  0  0  0
   49.9849   -3.7239   -5.0443 N   0  0  0  0  0  0  0  0  0  0  0  0
   49.6943   -4.4090   -3.7753 C   0  0  0  0  0  0  0  0  0  0  0  0
   50.5866   -5.5356   -4.3078 C   0  0  0  0  0  0  0  0  0  0  0  0
   50.0313   -5.0415   -5.6552 C   0  0  0  0  0  0  0  0  0  0  0  0
 28 29  1  0  0  0
 29 30  1  0  0  0
 30 31  1  0  0  0
 31 32  1  0  0  0
 32 27  1  0  0  0
 27 25  1  0  0  0
 25  1  1  0  0  0
  1  2  2  0  0  0
  2  3  1  0  0  0
  3  4  1  0  0  0
  3  5  2  0  0  0
  5  6  1  0  0  0
  6  7  2  0  0  0
  7  8  1  0  0  0
  5  9  1  0  0  0
  9 10  2  0  0  0
 10 11  1  0  0  0
 11 12  2  0  0  0
 12 13  1  0  0  0
 13 15  1  0  0  0
 15 17  1  0  0  0
 17 18  2  0  0  0
 18 19  1  0  0  0
 19 20  2  0  0  0
 20 21  1  0  0  0
 21 22  2  0  0  0
 22 23  1  0  0  0
 23 24  1  0  0  0
 13 14  2  0  0  0
 32 29  1  0  0  0
  7  1  1  0  0  0
 14  9  1  0  0  0
 22 17  1  0  0  0
 25 26  1  0  0  0
 15 16  1  0  0  0
M  END
> <minimizedAffinity>
-8.59473

> <CNNscore>
0.2553140223

> <CNNaffinity>
6.3689737320

> <CNN_VS>
1.6260882616

> <CNNaffinity_variance>
0.4653387666

$$$$
[H]c1c([H])c([H])c2c(c1[H])c(C([H])([H])[C@@]1([H])C(=O)N([H])[C@@]([H])([C@@]([H])(C([H])([H])[H])C([H])([H])C([H])([H])[H])C(=O)N([H])[C@@]([H])(C([H])([H])C([H])([H])C(=O)N([H])[H])C(=O)N([H])[C@@]([H])(C([H])([H])C(=O)N([H])[H])C(=O)N([H])[C@]([H])(C(=O)N([H])[H])C(=O)N1[H])c([H])n2[H]


 58 60  0  0  0  0  0  0  0  0999 V2000
   58.1879   -6.1348   -7.1304 C   0  0  0  0  0  0  0  0  0  0  0  0
   57.8601   -4.7227   -7.2216 N   0  0  0  0  0  0  0  0  0  0  0  0
   56.6406   -4.1771   -7.7081 C   0  0  0  0  0  0  0  0  0  0  0  0
   56.2352   -3.1048   -7.2253 O   0  0  0  0  0  0  0  0  0  0  0  0
   55.7964   -4.8169   -8.7709 C   0  0  0  0  0  0  0  0  0  0  0  0
   54.8795   -3.8394   -9.3263 N   0  0  0  0  0  0  0  0  0  0  0  0
   53.4624   -3.8237   -9.2447 C   0  0  0  0  0  0  0  0  0  0  0  0
   52.8618   -3.6990  -10.3710 O   0  0  0  0  0  0  0  0  0  0  0  0
   52.6367   -3.9243   -8.0593 C   0  0  0  0  0  0  0  0  0  0  0  0
   52.2260   -5.2689   -7.7302 N   0  0  0  0  0  0  0  0  0  0  0  0
   51.8218   -5.8599   -6.5394 C   0  0  0  0  0  0  0  0  0  0  0  0
   50.5958   -6.3225   -6.5475 O   0  0  0  0  0  0  0  0  0  0  0  0
   52.4944   -6.0766   -5.2756 C   0  0  0  0  0  0  0  0  0  0  0  0
   53.6041   -5.2962   -4.8872 N   0  0  0  0  0  0  0  0  0  0  0  0
   54.8430   -5.7864   -4.3819 C   0  0  0  0  0  0  0  0  0  0  0  0
   55.2201   -5.2538   -3.2117 O   0  0  0  0  0  0  0  0  0  0  0  0
   55.7776   -6.7521   -4.8564 C   0  0  0  0  0  0  0  0  0  0  0  0
   57.1778   -6.2668   -4.7410 N   0  0  0  0  0  0  0  0  0  0  0  0
   58.2020   -6.5214   -5.6583 C   0  0  0  0  0  0  0  0  0  0  0  0
   59.2446   -7.1277   -5.2489 O   0  0  0  0  0  0  0  0  0  0  0  0
   58.5775   -4.0444   -6.9001 H   0  0  0  0  0  0  0  0  0  0  0  0
   55.3625   -3.0417   -9.8597 H   0  0  0  0  0  0  0  0  0  0  0  0
   52.2427   -5.8920   -8.6339 H   0  0  0  0  0  0  0  0  0  0  0  0
   53.5607   -4.2580   -4.9561 H   0  0  0  0  0  0  0  0  0  0  0  0
   57.3583   -5.7190   -3.8799 H   0  0  0  0  0  0  0  0  0  0  0  0
   51.4496   -3.0122   -7.9878 C   0  0  0  0  0  0  0  0  0  0  0  0
   51.5709   -1.7212   -8.6512 N   0  0  0  0  0  0  0  0  0  0  0  0
   50.3802   -3.2325   -7.4256 O   0  0  0  0  0  0  0  0  0  0  0  0
   52.4484   -1.2933   -8.9180 H   0  0  0  0  0  0  0  0  0  0  0  0
   50.6493   -1.2467   -8.8902 H   0  0  0  0  0  0  0  0  0  0  0  0
   59.6271   -6.2576   -7.6652 C   0  0  0  0  0  0  0  0  0  0  0  0
   60.0963   -7.7017   -7.4465 C   0  0  0  0  0  0  0  0  0  0  0  0
   61.0874   -6.4672   -9.6044 C   0  0  0  0  0  0  0  0  0  0  0  0
   59.7671   -5.9091   -9.1139 C   0  0  0  0  0  0  0  0  0  0  0  0
   56.6475   -5.2862   -9.8963 C   0  0  0  0  0  0  0  0  0  0  0  0
   56.7325   -4.4133  -11.0852 C   0  0  0  0  0  0  0  0  0  0  0  0
   57.1851   -3.0886  -10.9481 C   0  0  0  0  0  0  0  0  0  0  0  0
   57.1962   -2.5780  -12.1710 N   0  0  0  0  0  0  0  0  0  0  0  0
   56.7858   -3.4694  -13.0741 C   0  0  0  0  0  0  0  0  0  0  0  0
   56.6154   -3.3278  -14.4353 C   0  0  0  0  0  0  0  0  0  0  0  0
   56.1317   -4.4190  -15.1106 C   0  0  0  0  0  0  0  0  0  0  0  0
   55.8226   -5.6296  -14.4630 C   0  0  0  0  0  0  0  0  0  0  0  0
   56.0054   -5.7240  -13.1078 C   0  0  0  0  0  0  0  0  0  0  0  0
   56.4857   -4.6494  -12.4024 C   0  0  0  0  0  0  0  0  0  0  0  0
   57.4934   -1.5873  -12.3929 H   0  0  0  0  0  0  0  0  0  0  0  0
   51.4617   -6.2667   -4.1616 C   0  0  0  0  0  0  0  0  0  0  0  0
   51.9891   -6.4410   -2.8251 C   0  0  0  0  0  0  0  0  0  0  0  0
   52.2041   -5.4894   -1.8335 N   0  0  0  0  0  0  0  0  0  0  0  0
   52.3059   -7.6507   -2.4979 O   0  0  0  0  0  0  0  0  0  0  0  0
   51.6439   -4.6279   -1.7598 H   0  0  0  0  0  0  0  0  0  0  0  0
   52.9451   -5.5792   -1.0797 H   0  0  0  0  0  0  0  0  0  0  0  0
   55.8081   -8.0569   -4.1366 C   0  0  0  0  0  0  0  0  0  0  0  0
   56.7845   -8.3398   -3.0726 C   0  0  0  0  0  0  0  0  0  0  0  0
   56.2481   -8.0340   -1.7124 C   0  0  0  0  0  0  0  0  0  0  0  0
   54.8782   -8.0831   -1.4696 N   0  0  0  0  0  0  0  0  0  0  0  0
   57.0632   -7.7387   -0.7982 O   0  0  0  0  0  0  0  0  0  0  0  0
   54.4004   -8.9850   -1.2770 H   0  0  0  0  0  0  0  0  0  0  0  0
   54.3047   -7.2237   -1.4624 H   0  0  0  0  0  0  0  0  0  0  0  0
 33 34  1  0  0  0
 34 31  1  0  0  0
 31 32  1  0  0  0
 31  1  1  0  0  0
  1  2  1  0  0  0
  2  3  1  0  0  0
  3  4  2  0  0  0
  3  5  1  0  0  0
  5 35  1  0  0  0
 35 36  1  0  0  0
 36 37  2  0  0  0
 37 38  1  0  0  0
 38 39  1  0  0  0
 39 40  2  0  0  0
 40 41  1  0  0  0
 41 42  2  0  0  0
 42 43  1  0  0  0
 43 44  2  0  0  0
  5  6  1  0  0  0
  6  7  1  0  0  0
  7  8  2  0  0  0
  7  9  1  0  0  0
  9 10  1  0  0  0
 10 11  1  0  0  0
 11 12  2  0  0  0
 11 13  1  0  0  0
 13 46  1  0  0  0
 46 47  1  0  0  0
 47 48  1  0  0  0
 47 49  2  0  0  0
 13 14  1  0  0  0
 14 15  1  0  0  0
 15 16  2  0  0  0
 15 17  1  0  0  0
 17 52  1  0  0  0
 52 53  1  0  0  0
 53 54  1  0  0  0
 54 55  1  0  0  0
 54 56  2  0  0  0
 17 18  1  0  0  0
 18 19  1  0  0  0
 19 20  2  0  0  0
  9 26  1  0  0  0
 26 27  1  0  0  0
 26 28  2  0  0  0
 19  1  1  0  0  0
 44 36  1  0  0  0
 44 39  1  0  0  0
  2 21  1  0  0  0
 38 45  1  0  0  0
  6 22  1  0  0  0
 10 23  1  0  0  0
 48 50  1  0  0  0
 48 51  1  0  0  0
 14 24  1  0  0  0
 55 57  1  0  0  0
 55 58  1  0  0  0
 18 25  1  0  0  0
 27 29  1  0  0  0
 27 30  1  0  0  0
M  END
> <minimizedAffinity>
-1.45295

> <CNNscore>
0.4622443318

> <CNNaffinity>
7.0886673927

> <CNN_VS>
3.2766962051

> <CNNaffinity_variance>
0.2261689603

$$$$
[H]c1c([H])c([H])c2c(c1[H])c(C([H])([H])[C@@]1([H])C(=O)N([H])[C@@]([H])([C@@]([H])(C([H])([H])[H])C([H])([H])C([H])([H])[H])C(=O)N([H])[C@@]([H])(C([H])([H])C([H])([H])C(=O)N([H])[H])C(=O)N([H])[C@@]([H])(C([H])([H])C(=O)N([H])[H])C(=O)N([H])[C@]([H])(C(=O)N([H])[H])C(=O)N1[H])c([H])n2[H]


 58 60  0  0  0  0  0  0  0  0999 V2000
   62.0248   -7.2097  -10.7078 C   0  0  0  0  0  0  0  0  0  0  0  0
   63.1382   -6.3043  -10.9318 N   0  0  0  0  0  0  0  0  0  0  0  0
   63.6182   -5.8659  -12.1962 C   0  0  0  0  0  0  0  0  0  0  0  0
   64.1168   -4.7294  -12.2810 O   0  0  0  0  0  0  0  0  0  0  0  0
   63.5576   -6.6868  -13.4509 C   0  0  0  0  0  0  0  0  0  0  0  0
   64.4789   -6.1508  -14.4351 N   0  0  0  0  0  0  0  0  0  0  0  0
   64.1730   -5.5549  -15.6867 C   0  0  0  0  0  0  0  0  0  0  0  0
   64.8040   -6.0527  -16.6861 O   0  0  0  0  0  0  0  0  0  0  0  0
   63.2540   -4.4686  -15.9557 C   0  0  0  0  0  0  0  0  0  0  0  0
   61.9161   -4.8897  -16.2988 N   0  0  0  0  0  0  0  0  0  0  0  0
   60.6844   -4.2512  -16.2217 C   0  0  0  0  0  0  0  0  0  0  0  0
   60.0859   -4.0771  -17.3743 O   0  0  0  0  0  0  0  0  0  0  0  0
   59.9150   -3.7382  -15.1074 C   0  0  0  0  0  0  0  0  0  0  0  0
   60.5257   -3.4091  -13.8786 N   0  0  0  0  0  0  0  0  0  0  0  0
   60.0828   -3.8081  -12.5844 C   0  0  0  0  0  0  0  0  0  0  0  0
   59.9069   -2.8013  -11.7180 O   0  0  0  0  0  0  0  0  0  0  0  0
   59.7657   -5.0722  -12.0075 C   0  0  0  0  0  0  0  0  0  0  0  0
   60.3540   -5.2218  -10.6507 N   0  0  0  0  0  0  0  0  0  0  0  0
   60.8744   -6.4057  -10.1190 C   0  0  0  0  0  0  0  0  0  0  0  0
   60.3565   -6.8690   -9.0516 O   0  0  0  0  0  0  0  0  0  0  0  0
   63.6309   -5.9374  -10.0946 H   0  0  0  0  0  0  0  0  0  0  0  0
   65.5126   -6.2295  -14.1535 H   0  0  0  0  0  0  0  0  0  0  0  0
   61.9423   -5.9093  -16.7050 H   0  0  0  0  0  0  0  0  0  0  0  0
   61.3833   -2.8184  -13.8646 H   0  0  0  0  0  0  0  0  0  0  0  0
   60.3300   -4.3511  -10.0890 H   0  0  0  0  0  0  0  0  0  0  0  0
   63.7114   -3.4276  -16.9320 C   0  0  0  0  0  0  0  0  0  0  0  0
   62.6748   -2.6920  -17.6433 N   0  0  0  0  0  0  0  0  0  0  0  0
   64.8706   -3.1261  -17.2031 O   0  0  0  0  0  0  0  0  0  0  0  0
   61.7130   -2.9950  -17.7303 H   0  0  0  0  0  0  0  0  0  0  0  0
   62.9808   -1.7581  -18.0505 H   0  0  0  0  0  0  0  0  0  0  0  0
   62.5099   -8.1988   -9.6314 C   0  0  0  0  0  0  0  0  0  0  0  0
   62.9208   -7.3928   -8.3925 C   0  0  0  0  0  0  0  0  0  0  0  0
   62.1803  -10.2893   -8.4239 C   0  0  0  0  0  0  0  0  0  0  0  0
   61.4859   -9.2170   -9.2382 C   0  0  0  0  0  0  0  0  0  0  0  0
   63.9935   -8.0823  -13.1789 C   0  0  0  0  0  0  0  0  0  0  0  0
   63.9154   -9.0421  -14.2993 C   0  0  0  0  0  0  0  0  0  0  0  0
   63.2448   -8.6819  -15.4822 C   0  0  0  0  0  0  0  0  0  0  0  0
   63.3799   -9.7108  -16.3064 N   0  0  0  0  0  0  0  0  0  0  0  0
   64.0799  -10.6965  -15.7434 C   0  0  0  0  0  0  0  0  0  0  0  0
   64.4060  -11.9400  -16.2427 C   0  0  0  0  0  0  0  0  0  0  0  0
   65.1076  -12.7722  -15.4084 C   0  0  0  0  0  0  0  0  0  0  0  0
   65.4854  -12.3910  -14.1074 C   0  0  0  0  0  0  0  0  0  0  0  0
   65.1373  -11.1458  -13.6521 C   0  0  0  0  0  0  0  0  0  0  0  0
   64.4332  -10.2900  -14.4614 C   0  0  0  0  0  0  0  0  0  0  0  0
   62.9787   -9.7382  -17.2849 H   0  0  0  0  0  0  0  0  0  0  0  0
   58.9261   -2.6789  -15.6009 C   0  0  0  0  0  0  0  0  0  0  0  0
   57.9549   -3.1188  -16.5796 C   0  0  0  0  0  0  0  0  0  0  0  0
   57.2638   -4.3239  -16.6526 N   0  0  0  0  0  0  0  0  0  0  0  0
   57.6839   -2.2768  -17.5221 O   0  0  0  0  0  0  0  0  0  0  0  0
   57.0348   -4.8840  -15.8188 H   0  0  0  0  0  0  0  0  0  0  0  0
   56.9145   -4.7503  -17.5590 H   0  0  0  0  0  0  0  0  0  0  0  0
   58.3197   -5.3577  -11.7861 C   0  0  0  0  0  0  0  0  0  0  0  0
   57.3032   -4.2936  -11.7929 C   0  0  0  0  0  0  0  0  0  0  0  0
   56.5646   -4.2210  -13.0893 C   0  0  0  0  0  0  0  0  0  0  0  0
   56.0534   -5.3769  -13.6729 N   0  0  0  0  0  0  0  0  0  0  0  0
   56.4136   -3.0939  -13.6318 O   0  0  0  0  0  0  0  0  0  0  0  0
   55.1452   -5.7758  -13.3648 H   0  0  0  0  0  0  0  0  0  0  0  0
   56.5574   -5.8598  -14.4346 H   0  0  0  0  0  0  0  0  0  0  0  0
 33 34  1  0  0  0
 34 31  1  0  0  0
 31 32  1  0  0  0
 31  1  1  0  0  0
  1  2  1  0  0  0
  2  3  1  0  0  0
  3  4  2  0  0  0
  3  5  1  0  0  0
  5 35  1  0  0  0
 35 36  1  0  0  0
 36 37  2  0  0  0
 37 38  1  0  0  0
 38 39  1  0  0  0
 39 40  2  0  0  0
 40 41  1  0  0  0
 41 42  2  0  0  0
 42 43  1  0  0  0
 43 44  2  0  0  0
  5  6  1  0  0  0
  6  7  1  0  0  0
  7  8  2  0  0  0
  7  9  1  0  0  0
  9 10  1  0  0  0
 10 11  1  0  0  0
 11 12  2  0  0  0
 11 13  1  0  0  0
 13 46  1  0  0  0
 46 47  1  0  0  0
 47 48  1  0  0  0
 47 49  2  0  0  0
 13 14  1  0  0  0
 14 15  1  0  0  0
 15 16  2  0  0  0
 15 17  1  0  0  0
 17 52  1  0  0  0
 52 53  1  0  0  0
 53 54  1  0  0  0
 54 55  1  0  0  0
 54 56  2  0  0  0
 17 18  1  0  0  0
 18 19  1  0  0  0
 19 20  2  0  0  0
  9 26  1  0  0  0
 26 27  1  0  0  0
 26 28  2  0  0  0
 19  1  1  0  0  0
 44 36  1  0  0  0
 44 39  1  0  0  0
  2 21  1  0  0  0
 38 45  1  0  0  0
  6 22  1  0  0  0
 10 23  1  0  0  0
 48 50  1  0  0  0
 48 51  1  0  0  0
 14 24  1  0  0  0
 55 57  1  0  0  0
 55 58  1  0  0  0
 18 25  1  0  0  0
 27 29  1  0  0  0
 27 30  1  0  0  0
M  END
> <minimizedAffinity>
1.83533

> <CNNscore>
0.4316416383

> <CNNaffinity>
5.4274702072

> <CNN_VS>
2.3427221775

> <CNNaffinity_variance>
0.5170779228

$$$$
[H]c1c([H])c([H])c2c(c1[H])c(C([H])([H])[C@@]1([H])C(=O)N([H])[C@@]([H])([C@@]([H])(C([H])([H])[H])C([H])([H])C([H])([H])[H])C(=O)N([H])[C@@]([H])(C([H])([H])C([H])([H])C(=O)N([H])[H])C(=O)N([H])[C@@]([H])(C([H])([H])C(=O)N([H])[H])C(=O)N([H])[C@]([H])(C(=O)N([H])[H])C(=O)N1[H])c([H])n2[H]


 58 60  0  0  0  0  0  0  0  0999 V2000
   58.7966   -5.4360   -8.2773 C   0  0  0  0  0  0  0  0  0  0  0  0
   59.2496   -6.7765   -8.6051 N   0  0  0  0  0  0  0  0  0  0  0  0
   60.3428   -7.4598   -8.0056 C   0  0  0  0  0  0  0  0  0  0  0  0
   60.2872   -8.6985   -7.9069 O   0  0  0  0  0  0  0  0  0  0  0  0
   61.5698   -6.7806   -7.4715 C   0  0  0  0  0  0  0  0  0  0  0  0
   62.6417   -7.7467   -7.3218 N   0  0  0  0  0  0  0  0  0  0  0  0
   63.2605   -8.1882   -6.1230 C   0  0  0  0  0  0  0  0  0  0  0  0
   64.5406   -8.1112   -6.1204 O   0  0  0  0  0  0  0  0  0  0  0  0
   62.6243   -8.7100   -4.9313 C   0  0  0  0  0  0  0  0  0  0  0  0
   62.3346   -7.7155   -3.9252 N   0  0  0  0  0  0  0  0  0  0  0  0
   61.4146   -7.6762   -2.8847 C   0  0  0  0  0  0  0  0  0  0  0  0
   61.9450   -7.6024   -1.6887 O   0  0  0  0  0  0  0  0  0  0  0  0
   59.9670   -7.6936   -2.8558 C   0  0  0  0  0  0  0  0  0  0  0  0
   59.2139   -8.2092   -3.9320 N   0  0  0  0  0  0  0  0  0  0  0  0
   58.1035   -7.5766   -4.5623 C   0  0  0  0  0  0  0  0  0  0  0  0
   56.9941   -8.3254   -4.6246 O   0  0  0  0  0  0  0  0  0  0  0  0
   57.9118   -6.2870   -5.1381 C   0  0  0  0  0  0  0  0  0  0  0  0
   57.2080   -6.3663   -6.4449 N   0  0  0  0  0  0  0  0  0  0  0  0
   57.4629   -5.5529   -7.5533 C   0  0  0  0  0  0  0  0  0  0  0  0
   56.5125   -4.8402   -8.0127 O   0  0  0  0  0  0  0  0  0  0  0  0
   58.7285   -7.2895   -9.3424 H   0  0  0  0  0  0  0  0  0  0  0  0
   62.9887   -8.1608   -8.2503 H   0  0  0  0  0  0  0  0  0  0  0  0
   63.0097   -6.8585   -4.0475 H   0  0  0  0  0  0  0  0  0  0  0  0
   59.4527   -9.1382   -4.3373 H   0  0  0  0  0  0  0  0  0  0  0  0
   56.4624   -7.0857   -6.4726 H   0  0  0  0  0  0  0  0  0  0  0  0
   63.2771   -9.8937   -4.2843 C   0  0  0  0  0  0  0  0  0  0  0  0
   64.1124  -10.7308   -5.1346 N   0  0  0  0  0  0  0  0  0  0  0  0
   63.1829  -10.2404   -3.1099 O   0  0  0  0  0  0  0  0  0  0  0  0
   64.0777  -10.7364   -6.1461 H   0  0  0  0  0  0  0  0  0  0  0  0
   64.8219  -11.3335   -4.6199 H   0  0  0  0  0  0  0  0  0  0  0  0
   58.5411   -4.7465   -9.6307 C   0  0  0  0  0  0  0  0  0  0  0  0
   59.4856   -5.3664  -10.6685 C   0  0  0  0  0  0  0  0  0  0  0  0
   57.1281   -4.6344  -11.6125 C   0  0  0  0  0  0  0  0  0  0  0  0
   57.1303   -4.8672  -10.1155 C   0  0  0  0  0  0  0  0  0  0  0  0
   62.0550   -5.7555   -8.4332 C   0  0  0  0  0  0  0  0  0  0  0  0
   63.2905   -6.0662   -9.1814 C   0  0  0  0  0  0  0  0  0  0  0  0
   64.5440   -5.8358   -8.5863 C   0  0  0  0  0  0  0  0  0  0  0  0
   65.4467   -6.2466   -9.4653 N   0  0  0  0  0  0  0  0  0  0  0  0
   64.8694   -6.7176  -10.5714 C   0  0  0  0  0  0  0  0  0  0  0  0
   65.4463   -7.1986  -11.7281 C   0  0  0  0  0  0  0  0  0  0  0  0
   64.5899   -7.5782  -12.7297 C   0  0  0  0  0  0  0  0  0  0  0  0
   63.1915   -7.4904  -12.5988 C   0  0  0  0  0  0  0  0  0  0  0  0
   62.6623   -7.0036  -11.4317 C   0  0  0  0  0  0  0  0  0  0  0  0
   63.4922   -6.6130  -10.4110 C   0  0  0  0  0  0  0  0  0  0  0  0
   66.4909   -6.2016   -9.3018 H   0  0  0  0  0  0  0  0  0  0  0  0
   59.4789   -8.1702   -1.4853 C   0  0  0  0  0  0  0  0  0  0  0  0
   59.3795   -9.6028   -1.3058 C   0  0  0  0  0  0  0  0  0  0  0  0
   59.6577  -10.3694   -0.1788 N   0  0  0  0  0  0  0  0  0  0  0  0
   58.9729  -10.2724   -2.3340 O   0  0  0  0  0  0  0  0  0  0  0  0
   59.5686  -10.0008    0.7792 H   0  0  0  0  0  0  0  0  0  0  0  0
   59.9697  -11.3826   -0.2161 H   0  0  0  0  0  0  0  0  0  0  0  0
   57.0779   -5.3285   -4.3587 C   0  0  0  0  0  0  0  0  0  0  0  0
   55.6072   -5.3758   -4.3798 C   0  0  0  0  0  0  0  0  0  0  0  0
   55.0287   -5.6808   -3.0368 C   0  0  0  0  0  0  0  0  0  0  0  0
   54.2919   -4.7173   -2.3534 N   0  0  0  0  0  0  0  0  0  0  0  0
   55.2195   -6.8259   -2.5471 O   0  0  0  0  0  0  0  0  0  0  0  0
   53.2885   -4.5579   -2.5690 H   0  0  0  0  0  0  0  0  0  0  0  0
   54.7204   -4.1457   -1.6070 H   0  0  0  0  0  0  0  0  0  0  0  0
 33 34  1  0  0  0
 34 31  1  0  0  0
 31 32  1  0  0  0
 31  1  1  0  0  0
  1  2  1  0  0  0
  2  3  1  0  0  0
  3  4  2  0  0  0
  3  5  1  0  0  0
  5 35  1  0  0  0
 35 36  1  0  0  0
 36 37  2  0  0  0
 37 38  1  0  0  0
 38 39  1  0  0  0
 39 40  2  0  0  0
 40 41  1  0  0  0
 41 42  2  0  0  0
 42 43  1  0  0  0
 43 44  2  0  0  0
  5  6  1  0  0  0
  6  7  1  0  0  0
  7  8  2  0  0  0
  7  9  1  0  0  0
  9 10  1  0  0  0
 10 11  1  0  0  0
 11 12  2  0  0  0
 11 13  1  0  0  0
 13 46  1  0  0  0
 46 47  1  0  0  0
 47 48  1  0  0  0
 47 49  2  0  0  0
 13 14  1  0  0  0
 14 15  1  0  0  0
 15 16  2  0  0  0
 15 17  1  0  0  0
 17 52  1  0  0  0
 52 53  1  0  0  0
 53 54  1  0  0  0
 54 55  1  0  0  0
 54 56  2  0  0  0
 17 18  1  0  0  0
 18 19  1  0  0  0
 19 20  2  0  0  0
  9 26  1  0  0  0
 26 27  1  0  0  0
 26 28  2  0  0  0
 19  1  1  0  0  0
 44 36  1  0  0  0
 44 39  1  0  0  0
  2 21  1  0  0  0
 38 45  1  0  0  0
  6 22  1  0  0  0
 10 23  1  0  0  0
 48 50  1  0  0  0
 48 51  1  0  0  0
 14 24  1  0  0  0
 55 57  1  0  0  0
 55 58  1  0  0  0
 18 25  1  0  0  0
 27 29  1  0  0  0
 27 30  1  0  0  0
M  END
> <minimizedAffinity>
0.82161

> <CNNscore>
0.4224178195

> <CNNaffinity>
6.2276287079

> <CNN_VS>
2.6306612492

> <CNNaffinity_variance>
0.8397685885

$$$$
[H]c1c([H])c([H])c2c(c1[H])c(C([H])([H])[C@@]1([H])C(=O)N([H])[C@@]([H])([C@@]([H])(C([H])([H])[H])C([H])([H])C([H])([H])[H])C(=O)N([H])[C@@]([H])(C([H])([H])C([H])([H])C(=O)N([H])[H])C(=O)N([H])[C@@]([H])(C([H])([H])C(=O)N([H])[H])C(=O)N([H])[C@]([H])(C(=O)N([H])[H])C(=O)N1[H])c([H])n2[H]


 58 60  0  0  0  0  0  0  0  0999 V2000
   62.3093   -8.6201   -7.8067 C   0  0  0  0  0  0  0  0  0  0  0  0
   62.3202   -7.1701   -7.8906 N   0  0  0  0  0  0  0  0  0  0  0  0
   61.1873   -6.3359   -8.0956 C   0  0  0  0  0  0  0  0  0  0  0  0
   61.1855   -5.2008   -7.5867 O   0  0  0  0  0  0  0  0  0  0  0  0
   59.9774   -6.7379   -8.8870 C   0  0  0  0  0  0  0  0  0  0  0  0
   59.2156   -5.5593   -9.2549 N   0  0  0  0  0  0  0  0  0  0  0  0
   57.9100   -5.1947   -8.8336 C   0  0  0  0  0  0  0  0  0  0  0  0
   57.0977   -4.9156   -9.7859 O   0  0  0  0  0  0  0  0  0  0  0  0
   57.4047   -5.0983   -7.4800 C   0  0  0  0  0  0  0  0  0  0  0  0
   56.7761   -6.3026   -6.9904 N   0  0  0  0  0  0  0  0  0  0  0  0
   56.5491   -6.7857   -5.7075 C   0  0  0  0  0  0  0  0  0  0  0  0
   55.2850   -6.9309   -5.3940 O   0  0  0  0  0  0  0  0  0  0  0  0
   57.4408   -7.1729   -4.6345 C   0  0  0  0  0  0  0  0  0  0  0  0
   58.7667   -6.6943   -4.5683 N   0  0  0  0  0  0  0  0  0  0  0  0
   59.9358   -7.4798   -4.3527 C   0  0  0  0  0  0  0  0  0  0  0  0
   60.7082   -7.0671   -3.3385 O   0  0  0  0  0  0  0  0  0  0  0  0
   60.4620   -8.6424   -4.9874 C   0  0  0  0  0  0  0  0  0  0  0  0
   61.9215   -8.5191   -5.2403 N   0  0  0  0  0  0  0  0  0  0  0  0
   62.5937   -9.0110   -6.3634 C   0  0  0  0  0  0  0  0  0  0  0  0
   63.5269   -9.8597   -6.1871 O   0  0  0  0  0  0  0  0  0  0  0  0
   63.2368   -6.6930   -7.7888 H   0  0  0  0  0  0  0  0  0  0  0  0
   59.7294   -4.9012   -9.9309 H   0  0  0  0  0  0  0  0  0  0  0  0
   56.4174   -6.9026   -7.8369 H   0  0  0  0  0  0  0  0  0  0  0  0
   58.9597   -5.6770   -4.6796 H   0  0  0  0  0  0  0  0  0  0  0  0
   62.4365   -8.0405   -4.4788 H   0  0  0  0  0  0  0  0  0  0  0  0
   56.5289   -3.9219   -7.1717 C   0  0  0  0  0  0  0  0  0  0  0  0
   55.3124   -3.7826   -7.9606 N   0  0  0  0  0  0  0  0  0  0  0  0
   56.7258   -3.0549   -6.3245 O   0  0  0  0  0  0  0  0  0  0  0  0
   55.1469   -4.2437   -8.8462 H   0  0  0  0  0  0  0  0  0  0  0  0
   54.5550   -3.1782   -7.5218 H   0  0  0  0  0  0  0  0  0  0  0  0
   63.4975   -9.0901   -8.6667 C   0  0  0  0  0  0  0  0  0  0  0  0
   62.9405   -9.8593   -9.8714 C   0  0  0  0  0  0  0  0  0  0  0  0
   65.7307   -8.1290   -8.5062 C   0  0  0  0  0  0  0  0  0  0  0  0
   64.3702   -7.9766   -9.1550 C   0  0  0  0  0  0  0  0  0  0  0  0
   60.3839   -7.3932  -10.1584 C   0  0  0  0  0  0  0  0  0  0  0  0
   61.1238   -6.5672  -11.1346 C   0  0  0  0  0  0  0  0  0  0  0  0
   62.4679   -6.8639  -11.4240 C   0  0  0  0  0  0  0  0  0  0  0  0
   62.8419   -5.9955  -12.3525 N   0  0  0  0  0  0  0  0  0  0  0  0
   61.8458   -5.1697  -12.6758 C   0  0  0  0  0  0  0  0  0  0  0  0
   61.8330   -4.1104  -13.5588 C   0  0  0  0  0  0  0  0  0  0  0  0
   60.6612   -3.4044  -13.6540 C   0  0  0  0  0  0  0  0  0  0  0  0
   59.5202   -3.7326  -12.8984 C   0  0  0  0  0  0  0  0  0  0  0  0
   59.5797   -4.7924  -12.0311 C   0  0  0  0  0  0  0  0  0  0  0  0
   60.7383   -5.5180  -11.9106 C   0  0  0  0  0  0  0  0  0  0  0  0
   63.8106   -5.9677  -12.7769 H   0  0  0  0  0  0  0  0  0  0  0  0
   56.7020   -7.1115   -3.2951 C   0  0  0  0  0  0  0  0  0  0  0  0
   57.3626   -6.3814   -2.2345 C   0  0  0  0  0  0  0  0  0  0  0  0
   58.1464   -6.8631   -1.1911 N   0  0  0  0  0  0  0  0  0  0  0  0
   57.2090   -5.0981   -2.2536 O   0  0  0  0  0  0  0  0  0  0  0  0
   58.6986   -7.7297   -1.2657 H   0  0  0  0  0  0  0  0  0  0  0  0
   58.2438   -6.3777   -0.2529 H   0  0  0  0  0  0  0  0  0  0  0  0
   60.3537   -9.9205   -4.2282 C   0  0  0  0  0  0  0  0  0  0  0  0
   59.7855   -9.9780   -2.8720 C   0  0  0  0  0  0  0  0  0  0  0  0
   60.7932  -10.3929   -1.8503 C   0  0  0  0  0  0  0  0  0  0  0  0
   60.5594  -11.5022   -1.0423 N   0  0  0  0  0  0  0  0  0  0  0  0
   61.8534   -9.7204   -1.7453 O   0  0  0  0  0  0  0  0  0  0  0  0
   60.7509  -12.4640   -1.3845 H   0  0  0  0  0  0  0  0  0  0  0  0
   60.2017  -11.3967   -0.0787 H   0  0  0  0  0  0  0  0  0  0  0  0
 33 34  1  0  0  0
 34 31  1  0  0  0
 31 32  1  0  0  0
 31  1  1  0  0  0
  1  2  1  0  0  0
  2  3  1  0  0  0
  3  4  2  0  0  0
  3  5  1  0  0  0
  5 35  1  0  0  0
 35 36  1  0  0  0
 36 37  2  0  0  0
 37 38  1  0  0  0
 38 39  1  0  0  0
 39 40  2  0  0  0
 40 41  1  0  0  0
 41 42  2  0  0  0
 42 43  1  0  0  0
 43 44  2  0  0  0
  5  6  1  0  0  0
  6  7  1  0  0  0
  7  8  2  0  0  0
  7  9  1  0  0  0
  9 10  1  0  0  0
 10 11  1  0  0  0
 11 12  2  0  0  0
 11 13  1  0  0  0
 13 46  1  0  0  0
 46 47  1  0  0  0
 47 48  1  0  0  0
 47 49  2  0  0  0
 13 14  1  0  0  0
 14 15  1  0  0  0
 15 16  2  0  0  0
 15 17  1  0  0  0
 17 52  1  0  0  0
 52 53  1  0  0  0
 53 54  1  0  0  0
 54 55  1  0  0  0
 54 56  2  0  0  0
 17 18  1  0  0  0
 18 19  1  0  0  0
 19 20  2  0  0  0
  9 26  1  0  0  0
 26 27  1  0  0  0
 26 28  2  0  0  0
 19  1  1  0  0  0
 44 36  1  0  0  0
 44 39  1  0  0  0
  2 21  1  0  0  0
 38 45  1  0  0  0
  6 22  1  0  0  0
 10 23  1  0  0  0
 48 50  1  0  0  0
 48 51  1  0  0  0
 14 24  1  0  0  0
 55 57  1  0  0  0
 55 58  1  0  0  0
 18 25  1  0  0  0
 27 29  1  0  0  0
 27 30  1  0  0  0
M  END
> <minimizedAffinity>
0.12671

> <CNNscore>
0.4187246859

> <CNNaffinity>
5.9939279556

> <CNN_VS>
2.5098056793

> <CNNaffinity_variance>
0.4705648422

$$$$
[H]c1c([H])c([H])c2c(c1[H])c(C([H])([H])[C@@]1([H])C(=O)N([H])[C@@]([H])([C@@]([H])(C([H])([H])[H])C([H])([H])C([H])([H])[H])C(=O)N([H])[C@@]([H])(C([H])([H])C([H])([H])C(=O)N([H])[H])C(=O)N([H])[C@@]([H])(C([H])([H])C(=O)N([H])[H])C(=O)N([H])[C@]([H])(C(=O)N([H])[H])C(=O)N1[H])c([H])n2[H]


 58 60  0  0  0  0  0  0  0  0999 V2000
   61.4946   -6.7311   -8.2980 C   0  0  0  0  0  0  0  0  0  0  0  0
   61.3992   -8.1206   -7.8858 N   0  0  0  0  0  0  0  0  0  0  0  0
   61.4741   -8.6037   -6.5507 C   0  0  0  0  0  0  0  0  0  0  0  0
   60.8292   -9.6243   -6.2512 O   0  0  0  0  0  0  0  0  0  0  0  0
   62.2815   -7.9556   -5.4645 C   0  0  0  0  0  0  0  0  0  0  0  0
   62.4839   -8.8925   -4.3755 N   0  0  0  0  0  0  0  0  0  0  0  0
   61.9915   -8.8093   -3.0467 C   0  0  0  0  0  0  0  0  0  0  0  0
   62.8835   -8.9424   -2.1350 O   0  0  0  0  0  0  0  0  0  0  0  0
   60.6252   -8.6020   -2.6139 C   0  0  0  0  0  0  0  0  0  0  0  0
   60.2738   -7.2197   -2.3883 N   0  0  0  0  0  0  0  0  0  0  0  0
   59.0555   -6.5516   -2.3844 C   0  0  0  0  0  0  0  0  0  0  0  0
   58.7337   -6.0084   -1.2361 O   0  0  0  0  0  0  0  0  0  0  0  0
   58.0588   -6.3256   -3.4102 C   0  0  0  0  0  0  0  0  0  0  0  0
   57.9641   -7.1612   -4.5435 N   0  0  0  0  0  0  0  0  0  0  0  0
   57.8735   -6.7338   -5.8997 C   0  0  0  0  0  0  0  0  0  0  0  0
   56.8339   -7.2390   -6.5775 O   0  0  0  0  0  0  0  0  0  0  0  0
   58.6585   -5.8547   -6.7012 C   0  0  0  0  0  0  0  0  0  0  0  0
   58.9273   -6.4275   -8.0461 N   0  0  0  0  0  0  0  0  0  0  0  0
   60.1174   -6.2825   -8.7657 C   0  0  0  0  0  0  0  0  0  0  0  0
   60.0682   -5.7303   -9.9124 O   0  0  0  0  0  0  0  0  0  0  0  0
   61.2601   -8.8309   -8.6303 H   0  0  0  0  0  0  0  0  0  0  0  0
   63.0850   -9.7433   -4.6380 H   0  0  0  0  0  0  0  0  0  0  0  0
   61.1795   -6.6391   -2.1697 H   0  0  0  0  0  0  0  0  0  0  0  0
   57.9534   -8.1961   -4.4284 H   0  0  0  0  0  0  0  0  0  0  0  0
   58.1243   -6.9481   -8.4443 H   0  0  0  0  0  0  0  0  0  0  0  0
   60.1544   -9.4282   -1.4556 C   0  0  0  0  0  0  0  0  0  0  0  0
   60.5945   -9.0142   -0.1302 N   0  0  0  0  0  0  0  0  0  0  0  0
   59.4368  -10.4239   -1.5002 O   0  0  0  0  0  0  0  0  0  0  0  0
   61.3784   -8.3994    0.0481 H   0  0  0  0  0  0  0  0  0  0  0  0
   60.0004   -9.3722    0.6764 H   0  0  0  0  0  0  0  0  0  0  0  0
   62.4327   -6.7287   -9.5197 C   0  0  0  0  0  0  0  0  0  0  0  0
   63.0079   -8.1414   -9.6830 C   0  0  0  0  0  0  0  0  0  0  0  0
   62.4067   -7.0929  -11.9287 C   0  0  0  0  0  0  0  0  0  0  0  0
   61.7656   -6.3188  -10.7952 C   0  0  0  0  0  0  0  0  0  0  0  0
   63.6329   -7.5939   -5.9686 C   0  0  0  0  0  0  0  0  0  0  0  0
   64.2454   -6.3628   -5.4283 C   0  0  0  0  0  0  0  0  0  0  0  0
   64.5109   -6.2612   -4.0508 C   0  0  0  0  0  0  0  0  0  0  0  0
   65.0925   -5.0832   -3.8769 N   0  0  0  0  0  0  0  0  0  0  0  0
   65.2168   -4.4268   -5.0311 C   0  0  0  0  0  0  0  0  0  0  0  0
   65.7249   -3.1685   -5.2771 C   0  0  0  0  0  0  0  0  0  0  0  0
   65.6836   -2.7327   -6.5767 C   0  0  0  0  0  0  0  0  0  0  0  0
   65.1553   -3.5179   -7.6183 C   0  0  0  0  0  0  0  0  0  0  0  0
   64.6587   -4.7618   -7.3267 C   0  0  0  0  0  0  0  0  0  0  0  0
   64.6832   -5.2266   -6.0357 C   0  0  0  0  0  0  0  0  0  0  0  0
   65.4133   -4.7177   -2.9373 H   0  0  0  0  0  0  0  0  0  0  0  0
   56.7058   -6.0183   -2.7635 C   0  0  0  0  0  0  0  0  0  0  0  0
   55.9849   -4.8836   -3.2997 C   0  0  0  0  0  0  0  0  0  0  0  0
   55.3386   -4.7512   -4.5244 N   0  0  0  0  0  0  0  0  0  0  0  0
   55.9271   -3.8415   -2.5371 O   0  0  0  0  0  0  0  0  0  0  0  0
   54.9316   -5.5532   -5.0269 H   0  0  0  0  0  0  0  0  0  0  0  0
   55.2070   -3.8256   -5.0256 H   0  0  0  0  0  0  0  0  0  0  0  0
   58.0605   -4.5247   -7.0097 C   0  0  0  0  0  0  0  0  0  0  0  0
   57.2163   -4.3034   -8.1945 C   0  0  0  0  0  0  0  0  0  0  0  0
   55.7830   -4.0800   -7.8379 C   0  0  0  0  0  0  0  0  0  0  0  0
   55.2959   -2.7880   -7.6605 N   0  0  0  0  0  0  0  0  0  0  0  0
   55.0329   -5.0841   -7.7092 O   0  0  0  0  0  0  0  0  0  0  0  0
   55.0155   -2.2050   -8.4731 H   0  0  0  0  0  0  0  0  0  0  0  0
   55.1893   -2.3810   -6.7168 H   0  0  0  0  0  0  0  0  0  0  0  0
 33 34  1  0  0  0
 34 31  1  0  0  0
 31 32  1  0  0  0
 31  1  1  0  0  0
  1  2  1  0  0  0
  2  3  1  0  0  0
  3  4  2  0  0  0
  3  5  1  0  0  0
  5 35  1  0  0  0
 35 36  1  0  0  0
 36 37  2  0  0  0
 37 38  1  0  0  0
 38 39  1  0  0  0
 39 40  2  0  0  0
 40 41  1  0  0  0
 41 42  2  0  0  0
 42 43  1  0  0  0
 43 44  2  0  0  0
  5  6  1  0  0  0
  6  7  1  0  0  0
  7  8  2  0  0  0
  7  9  1  0  0  0
  9 10  1  0  0  0
 10 11  1  0  0  0
 11 12  2  0  0  0
 11 13  1  0  0  0
 13 46  1  0  0  0
 46 47  1  0  0  0
 47 48  1  0  0  0
 47 49  2  0  0  0
 13 14  1  0  0  0
 14 15  1  0  0  0
 15 16  2  0  0  0
 15 17  1  0  0  0
 17 52  1  0  0  0
 52 53  1  0  0  0
 53 54  1  0  0  0
 54 55  1  0  0  0
 54 56  2  0  0  0
 17 18  1  0  0  0
 18 19  1  0  0  0
 19 20  2  0  0  0
  9 26  1  0  0  0
 26 27  1  0  0  0
 26 28  2  0  0  0
 19  1  1  0  0  0
 44 36  1  0  0  0
 44 39  1  0  0  0
  2 21  1  0  0  0
 38 45  1  0  0  0
  6 22  1  0  0  0
 10 23  1  0  0  0
 48 50  1  0  0  0
 48 51  1  0  0  0
 14 24  1  0  0  0
 55 57  1  0  0  0
 55 58  1  0  0  0
 18 25  1  0  0  0
 27 29  1  0  0  0
 27 30  1  0  0  0
M  END
> <minimizedAffinity>
2.46334

> <CNNscore>
0.4167594910

> <CNNaffinity>
6.1814227104

> <CNN_VS>
2.5761666298

> <CNNaffinity_variance>
0.9476038814

$$$$
[H]c1c([H])c([H])c2c(c1[H])c(C([H])([H])[C@@]1([H])C(=O)N([H])[C@@]([H])([C@@]([H])(C([H])([H])[H])C([H])([H])C([H])([H])[H])C(=O)N([H])[C@@]([H])(C([H])([H])C([H])([H])C(=O)N([H])[H])C(=O)N([H])[C@@]([H])(C([H])([H])C(=O)N([H])[H])C(=O)N([H])[C@]([H])(C(=O)N([H])[H])C(=O)N1[H])c([H])n2[H]


 58 60  0  0  0  0  0  0  0  0999 V2000
   62.6308  -11.4309   -6.8967 C   0  0  0  0  0  0  0  0  0  0  0  0
   61.9700  -10.3327   -6.2133 N   0  0  0  0  0  0  0  0  0  0  0  0
   62.4943   -9.0234   -6.0331 C   0  0  0  0  0  0  0  0  0  0  0  0
   61.7009   -8.0662   -5.9927 O   0  0  0  0  0  0  0  0  0  0  0  0
   63.9558   -8.7132   -5.8936 C   0  0  0  0  0  0  0  0  0  0  0  0
   64.1261   -7.3931   -5.3166 N   0  0  0  0  0  0  0  0  0  0  0  0
   64.6915   -6.2400   -5.9215 C   0  0  0  0  0  0  0  0  0  0  0  0
   65.6177   -5.6752   -5.2376 O   0  0  0  0  0  0  0  0  0  0  0  0
   64.3442   -5.6393   -7.1926 C   0  0  0  0  0  0  0  0  0  0  0  0
   65.1356   -6.1028   -8.3079 N   0  0  0  0  0  0  0  0  0  0  0  0
   64.8986   -6.1318   -9.6768 C   0  0  0  0  0  0  0  0  0  0  0  0
   65.7311   -5.4147  -10.3908 O   0  0  0  0  0  0  0  0  0  0  0  0
   63.9069   -6.8098  -10.4851 C   0  0  0  0  0  0  0  0  0  0  0  0
   62.6824   -7.2476   -9.9371 N   0  0  0  0  0  0  0  0  0  0  0  0
   62.1033   -8.5400  -10.0948 C   0  0  0  0  0  0  0  0  0  0  0  0
   60.8444   -8.5369  -10.5537 O   0  0  0  0  0  0  0  0  0  0  0  0
   62.5912   -9.8617   -9.8796 C   0  0  0  0  0  0  0  0  0  0  0  0
   61.5974  -10.7066   -9.1669 N   0  0  0  0  0  0  0  0  0  0  0  0
   61.8992  -11.6786   -8.2082 C   0  0  0  0  0  0  0  0  0  0  0  0
   61.5410  -12.8804   -8.4308 O   0  0  0  0  0  0  0  0  0  0  0  0
   61.0258  -10.5137   -5.8210 H   0  0  0  0  0  0  0  0  0  0  0  0
   63.7715   -7.3095   -4.3059 H   0  0  0  0  0  0  0  0  0  0  0  0
   66.1011   -6.4788   -7.9450 H   0  0  0  0  0  0  0  0  0  0  0  0
   62.1102   -6.5998   -9.3564 H   0  0  0  0  0  0  0  0  0  0  0  0
   60.6185  -10.5340   -9.4605 H   0  0  0  0  0  0  0  0  0  0  0  0
   64.2646   -4.1432   -7.2294 C   0  0  0  0  0  0  0  0  0  0  0  0
   65.3761   -3.4104   -6.6385 N   0  0  0  0  0  0  0  0  0  0  0  0
   63.3589   -3.4620   -7.7027 O   0  0  0  0  0  0  0  0  0  0  0  0
   66.0453   -3.8070   -5.9911 H   0  0  0  0  0  0  0  0  0  0  0  0
   65.4802   -2.4039   -6.9666 H   0  0  0  0  0  0  0  0  0  0  0  0
   62.4177  -12.6624   -5.9965 C   0  0  0  0  0  0  0  0  0  0  0  0
   63.7893  -13.2852   -5.7065 C   0  0  0  0  0  0  0  0  0  0  0  0
   62.5859  -12.9091   -3.5783 C   0  0  0  0  0  0  0  0  0  0  0  0
   61.7333  -12.3553   -4.7015 C   0  0  0  0  0  0  0  0  0  0  0  0
   64.6020   -9.6710   -4.9575 C   0  0  0  0  0  0  0  0  0  0  0  0
   64.5619   -9.3367   -3.5189 C   0  0  0  0  0  0  0  0  0  0  0  0
   65.7500   -8.9951   -2.8479 C   0  0  0  0  0  0  0  0  0  0  0  0
   65.3967   -8.7069   -1.6036 N   0  0  0  0  0  0  0  0  0  0  0  0
   64.0812   -8.8392   -1.4283 C   0  0  0  0  0  0  0  0  0  0  0  0
   63.3252   -8.6750   -0.2866 C   0  0  0  0  0  0  0  0  0  0  0  0
   61.9815   -8.9251   -0.3986 C   0  0  0  0  0  0  0  0  0  0  0  0
   61.3882   -9.3268   -1.6099 C   0  0  0  0  0  0  0  0  0  0  0  0
   62.1793   -9.4797   -2.7188 C   0  0  0  0  0  0  0  0  0  0  0  0
   63.5281   -9.2395   -2.6396 C   0  0  0  0  0  0  0  0  0  0  0  0
   66.0790   -8.4112   -0.8511 H   0  0  0  0  0  0  0  0  0  0  0  0
   63.7530   -6.0944  -11.8297 C   0  0  0  0  0  0  0  0  0  0  0  0
   62.5327   -6.3633  -12.5599 C   0  0  0  0  0  0  0  0  0  0  0  0
   61.4137   -5.5548  -12.7308 N   0  0  0  0  0  0  0  0  0  0  0  0
   62.4663   -7.5162  -13.1408 O   0  0  0  0  0  0  0  0  0  0  0  0
   61.4654   -4.5259  -12.7207 H   0  0  0  0  0  0  0  0  0  0  0  0
   60.4342   -5.9286  -12.8925 H   0  0  0  0  0  0  0  0  0  0  0  0
   62.9072  -10.6601  -11.0979 C   0  0  0  0  0  0  0  0  0  0  0  0
   64.2372  -11.2481  -11.3236 C   0  0  0  0  0  0  0  0  0  0  0  0
   64.4797  -11.5709  -12.7618 C   0  0  0  0  0  0  0  0  0  0  0  0
   64.8521  -10.5693  -13.6540 N   0  0  0  0  0  0  0  0  0  0  0  0
   64.3446  -12.7652  -13.1399 O   0  0  0  0  0  0  0  0  0  0  0  0
   65.8399  -10.2565  -13.7262 H   0  0  0  0  0  0  0  0  0  0  0  0
   64.1588  -10.1208  -14.2750 H   0  0  0  0  0  0  0  0  0  0  0  0
 33 34  1  0  0  0
 34 31  1  0  0  0
 31 32  1  0  0  0
 31  1  1  0  0  0
  1  2  1  0  0  0
  2  3  1  0  0  0
  3  4  2  0  0  0
  3  5  1  0  0  0
  5 35  1  0  0  0
 35 36  1  0  0  0
 36 37  2  0  0  0
 37 38  1  0  0  0
 38 39  1  0  0  0
 39 40  2  0  0  0
 40 41  1  0  0  0
 41 42  2  0  0  0
 42 43  1  0  0  0
 43 44  2  0  0  0
  5  6  1  0  0  0
  6  7  1  0  0  0
  7  8  2  0  0  0
  7  9  1  0  0  0
  9 10  1  0  0  0
 10 11  1  0  0  0
 11 12  2  0  0  0
 11 13  1  0  0  0
 13 46  1  0  0  0
 46 47  1  0  0  0
 47 48  1  0  0  0
 47 49  2  0  0  0
 13 14  1  0  0  0
 14 15  1  0  0  0
 15 16  2  0  0  0
 15 17  1  0  0  0
 17 52  1  0  0  0
 52 53  1  0  0  0
 53 54  1  0  0  0
 54 55  1  0  0  0
 54 56  2  0  0  0
 17 18  1  0  0  0
 18 19  1  0  0  0
 19 20  2  0  0  0
  9 26  1  0  0  0
 26 27  1  0  0  0
 26 28  2  0  0  0
 19  1  1  0  0  0
 44 36  1  0  0  0
 44 39  1  0  0  0
  2 21  1  0  0  0
 38 45  1  0  0  0
  6 22  1  0  0  0
 10 23  1  0  0  0
 48 50  1  0  0  0
 48 51  1  0  0  0
 14 24  1  0  0  0
 55 57  1  0  0  0
 55 58  1  0  0  0
 18 25  1  0  0  0
 27 29  1  0  0  0
 27 30  1  0  0  0
M  END
> <minimizedAffinity>
-2.02956

> <CNNscore>
0.4130264521

> <CNNaffinity>
5.4980807304

> <CNN_VS>
2.2708528042

> <CNNaffinity_variance>
0.9811286926

$$$$
[H]c1c([H])c([H])c2c(c1[H])c(C([H])([H])[C@@]1([H])C(=O)N([H])[C@@]([H])([C@@]([H])(C([H])([H])[H])C([H])([H])C([H])([H])[H])C(=O)N([H])[C@@]([H])(C([H])([H])C([H])([H])C(=O)N([H])[H])C(=O)N([H])[C@@]([H])(C([H])([H])C(=O)N([H])[H])C(=O)N([H])[C@]([H])(C(=O)N([H])[H])C(=O)N1[H])c([H])n2[H]


 58 60  0  0  0  0  0  0  0  0999 V2000
   62.7895   -9.1184   -6.4529 C   0  0  0  0  0  0  0  0  0  0  0  0
   62.8804   -7.7152   -6.8168 N   0  0  0  0  0  0  0  0  0  0  0  0
   61.8422   -6.9311   -7.3903 C   0  0  0  0  0  0  0  0  0  0  0  0
   61.7987   -5.7167   -7.1241 O   0  0  0  0  0  0  0  0  0  0  0  0
   60.7797   -7.4755   -8.2993 C   0  0  0  0  0  0  0  0  0  0  0  0
   60.1511   -6.3897   -9.0278 N   0  0  0  0  0  0  0  0  0  0  0  0
   58.8083   -5.9380   -8.9385 C   0  0  0  0  0  0  0  0  0  0  0  0
   58.1961   -5.8507  -10.0620 O   0  0  0  0  0  0  0  0  0  0  0  0
   58.0700   -5.5671   -7.7492 C   0  0  0  0  0  0  0  0  0  0  0  0
   57.3095   -6.6432   -7.1588 N   0  0  0  0  0  0  0  0  0  0  0  0
   56.8316   -6.8561   -5.8716 C   0  0  0  0  0  0  0  0  0  0  0  0
   55.5264   -6.9258   -5.7779 O   0  0  0  0  0  0  0  0  0  0  0  0
   57.4950   -7.0256   -4.5958 C   0  0  0  0  0  0  0  0  0  0  0  0
   58.8068   -6.5532   -4.3780 N   0  0  0  0  0  0  0  0  0  0  0  0
   59.8809   -7.2877   -3.7972 C   0  0  0  0  0  0  0  0  0  0  0  0
   60.4736   -6.6847   -2.7577 O   0  0  0  0  0  0  0  0  0  0  0  0
   60.4611   -8.5582   -4.0809 C   0  0  0  0  0  0  0  0  0  0  0  0
   61.9463   -8.4992   -4.0754 N   0  0  0  0  0  0  0  0  0  0  0  0
   62.7888   -9.2123   -4.9337 C   0  0  0  0  0  0  0  0  0  0  0  0
   63.6354  -10.0149   -4.4224 O   0  0  0  0  0  0  0  0  0  0  0  0
   63.7836   -7.2341   -6.6411 H   0  0  0  0  0  0  0  0  0  0  0  0
   60.8082   -5.8852   -9.7117 H   0  0  0  0  0  0  0  0  0  0  0  0
   57.0843   -7.3990   -7.9226 H   0  0  0  0  0  0  0  0  0  0  0  0
   59.0622   -5.5807   -4.6491 H   0  0  0  0  0  0  0  0  0  0  0  0
   62.3350   -7.8807   -3.3402 H   0  0  0  0  0  0  0  0  0  0  0  0
   57.2064   -4.3462   -7.8478 C   0  0  0  0  0  0  0  0  0  0  0  0
   56.6684   -4.0254   -9.1628 N   0  0  0  0  0  0  0  0  0  0  0  0
   56.9025   -3.5795   -6.9379 O   0  0  0  0  0  0  0  0  0  0  0  0
   57.0303   -4.3890  -10.0353 H   0  0  0  0  0  0  0  0  0  0  0  0
   55.8120   -3.3943   -9.1600 H   0  0  0  0  0  0  0  0  0  0  0  0
   64.0920   -9.7609   -6.9657 C   0  0  0  0  0  0  0  0  0  0  0  0
   65.2732   -8.9556   -6.4092 C   0  0  0  0  0  0  0  0  0  0  0  0
   65.1593  -11.8580   -7.5978 C   0  0  0  0  0  0  0  0  0  0  0  0
   64.2515  -11.1981   -6.5802 C   0  0  0  0  0  0  0  0  0  0  0  0
   61.3808   -8.3767   -9.3180 C   0  0  0  0  0  0  0  0  0  0  0  0
   61.3841   -9.8234   -9.0185 C   0  0  0  0  0  0  0  0  0  0  0  0
   60.5935  -10.3208   -7.9668 C   0  0  0  0  0  0  0  0  0  0  0  0
   60.7657  -11.6348   -7.9703 N   0  0  0  0  0  0  0  0  0  0  0  0
   61.6028  -12.0132   -8.9372 C   0  0  0  0  0  0  0  0  0  0  0  0
   62.0723  -13.2712   -9.2514 C   0  0  0  0  0  0  0  0  0  0  0  0
   62.9702  -13.3512  -10.2849 C   0  0  0  0  0  0  0  0  0  0  0  0
   63.3987  -12.2175  -11.0001 C   0  0  0  0  0  0  0  0  0  0  0  0
   62.9072  -10.9864  -10.6511 C   0  0  0  0  0  0  0  0  0  0  0  0
   62.0089  -10.8719   -9.6199 C   0  0  0  0  0  0  0  0  0  0  0  0
   60.2953  -12.2921   -7.2879 H   0  0  0  0  0  0  0  0  0  0  0  0
   56.5284   -6.6900   -3.4571 C   0  0  0  0  0  0  0  0  0  0  0  0
   56.7562   -5.4337   -2.7757 C   0  0  0  0  0  0  0  0  0  0  0  0
   56.2674   -4.1672   -3.0795 N   0  0  0  0  0  0  0  0  0  0  0  0
   57.5198   -5.4882   -1.7342 O   0  0  0  0  0  0  0  0  0  0  0  0
   55.3684   -4.0197   -3.5604 H   0  0  0  0  0  0  0  0  0  0  0  0
   56.7703   -3.2658   -2.8346 H   0  0  0  0  0  0  0  0  0  0  0  0
   60.1594   -9.6562   -3.1191 C   0  0  0  0  0  0  0  0  0  0  0  0
   58.9334   -9.6671   -2.3052 C   0  0  0  0  0  0  0  0  0  0  0  0
   59.1855  -10.1165   -0.9031 C   0  0  0  0  0  0  0  0  0  0  0  0
   59.9148   -9.3156   -0.0285 N   0  0  0  0  0  0  0  0  0  0  0  0
   58.7190  -11.2278   -0.5359 O   0  0  0  0  0  0  0  0  0  0  0  0
   59.4650   -8.5280    0.4777 H   0  0  0  0  0  0  0  0  0  0  0  0
   60.9173   -9.4915    0.1486 H   0  0  0  0  0  0  0  0  0  0  0  0
 33 34  1  0  0  0
 34 31  1  0  0  0
 31 32  1  0  0  0
 31  1  1  0  0  0
  1  2  1  0  0  0
  2  3  1  0  0  0
  3  4  2  0  0  0
  3  5  1  0  0  0
  5 35  1  0  0  0
 35 36  1  0  0  0
 36 37  2  0  0  0
 37 38  1  0  0  0
 38 39  1  0  0  0
 39 40  2  0  0  0
 40 41  1  0  0  0
 41 42  2  0  0  0
 42 43  1  0  0  0
 43 44  2  0  0  0
  5  6  1  0  0  0
  6  7  1  0  0  0
  7  8  2  0  0  0
  7  9  1  0  0  0
  9 10  1  0  0  0
 10 11  1  0  0  0
 11 12  2  0  0  0
 11 13  1  0  0  0
 13 46  1  0  0  0
 46 47  1  0  0  0
 47 48  1  0  0  0
 47 49  2  0  0  0
 13 14  1  0  0  0
 14 15  1  0  0  0
 15 16  2  0  0  0
 15 17  1  0  0  0
 17 52  1  0  0  0
 52 53  1  0  0  0
 53 54  1  0  0  0
 54 55  1  0  0  0
 54 56  2  0  0  0
 17 18  1  0  0  0
 18 19  1  0  0  0
 19 20  2  0  0  0
  9 26  1  0  0  0
 26 27  1  0  0  0
 26 28  2  0  0  0
 19  1  1  0  0  0
 44 36  1  0  0  0
 44 39  1  0  0  0
  2 21  1  0  0  0
 38 45  1  0  0  0
  6 22  1  0  0  0
 10 23  1  0  0  0
 48 50  1  0  0  0
 48 51  1  0  0  0
 14 24  1  0  0  0
 55 57  1  0  0  0
 55 58  1  0  0  0
 18 25  1  0  0  0
 27 29  1  0  0  0
 27 30  1  0  0  0
M  END
> <minimizedAffinity>
-1.06467

> <CNNscore>
0.4126442969

> <CNNaffinity>
6.1807875633

> <CNN_VS>
2.5504667759

> <CNNaffinity_variance>
0.3892554939

$$$$
[H]c1c([H])c([H])c2c(c1[H])c(C([H])([H])[C@@]1([H])C(=O)N([H])[C@@]([H])([C@@]([H])(C([H])([H])[H])C([H])([H])C([H])([H])[H])C(=O)N([H])[C@@]([H])(C([H])([H])C([H])([H])C(=O)N([H])[H])C(=O)N([H])[C@@]([H])(C([H])([H])C(=O)N([H])[H])C(=O)N([H])[C@]([H])(C(=O)N([H])[H])C(=O)N1[H])c([H])n2[H]


 58 60  0  0  0  0  0  0  0  0999 V2000
   63.5255   -4.8601  -15.2865 C   0  0  0  0  0  0  0  0  0  0  0  0
   63.0284   -3.6475  -14.6604 N   0  0  0  0  0  0  0  0  0  0  0  0
   61.7805   -3.5011  -13.9949 C   0  0  0  0  0  0  0  0  0  0  0  0
   61.7037   -2.7007  -13.0458 O   0  0  0  0  0  0  0  0  0  0  0  0
   60.5378   -4.2594  -14.3588 C   0  0  0  0  0  0  0  0  0  0  0  0
   59.3752   -3.5983  -13.7968 N   0  0  0  0  0  0  0  0  0  0  0  0
   58.4923   -4.0819  -12.7959 C   0  0  0  0  0  0  0  0  0  0  0  0
   57.2497   -4.0369  -13.1098 O   0  0  0  0  0  0  0  0  0  0  0  0
   58.8282   -4.6030  -11.4872 C   0  0  0  0  0  0  0  0  0  0  0  0
   58.9994   -6.0360  -11.4413 N   0  0  0  0  0  0  0  0  0  0  0  0
   59.6929   -6.8692  -10.5719 C   0  0  0  0  0  0  0  0  0  0  0  0
   58.9432   -7.7213   -9.9171 O   0  0  0  0  0  0  0  0  0  0  0  0
   61.0980   -6.9916  -10.2444 C   0  0  0  0  0  0  0  0  0  0  0  0
   62.0014   -5.9295  -10.4616 N   0  0  0  0  0  0  0  0  0  0  0  0
   63.2675   -6.0199  -11.1089 C   0  0  0  0  0  0  0  0  0  0  0  0
   64.2951   -5.5353  -10.3986 O   0  0  0  0  0  0  0  0  0  0  0  0
   63.6856   -6.5397  -12.3685 C   0  0  0  0  0  0  0  0  0  0  0  0
   64.6261   -5.6193  -13.0596 N   0  0  0  0  0  0  0  0  0  0  0  0
   64.6718   -5.3928  -14.4386 C   0  0  0  0  0  0  0  0  0  0  0  0
   65.7550   -5.6474  -15.0585 O   0  0  0  0  0  0  0  0  0  0  0  0
   63.6379   -2.8076  -14.6959 H   0  0  0  0  0  0  0  0  0  0  0  0
   59.1847   -2.6249  -14.2094 H   0  0  0  0  0  0  0  0  0  0  0  0
   58.4422   -6.5014  -12.2648 H   0  0  0  0  0  0  0  0  0  0  0  0
   61.7657   -4.9696  -10.1337 H   0  0  0  0  0  0  0  0  0  0  0  0
   65.2944   -5.1510  -12.4206 H   0  0  0  0  0  0  0  0  0  0  0  0
   57.9555   -4.1716  -10.3477 C   0  0  0  0  0  0  0  0  0  0  0  0
   56.8101   -3.3341  -10.6767 N   0  0  0  0  0  0  0  0  0  0  0  0
   58.1017   -4.4448   -9.1594 O   0  0  0  0  0  0  0  0  0  0  0  0
   56.7069   -2.8163  -11.5402 H   0  0  0  0  0  0  0  0  0  0  0  0
   56.0327   -3.3249   -9.9507 H   0  0  0  0  0  0  0  0  0  0  0  0
   64.1071   -4.4141  -16.6412 C   0  0  0  0  0  0  0  0  0  0  0  0
   62.9378   -4.1316  -17.5933 C   0  0  0  0  0  0  0  0  0  0  0  0
   64.2526   -2.0562  -17.2379 C   0  0  0  0  0  0  0  0  0  0  0  0
   64.9770   -3.1992  -16.5568 C   0  0  0  0  0  0  0  0  0  0  0  0
   60.3486   -4.2673  -15.8337 C   0  0  0  0  0  0  0  0  0  0  0  0
   59.4337   -3.2550  -16.4002 C   0  0  0  0  0  0  0  0  0  0  0  0
   59.9461   -2.0257  -16.8527 C   0  0  0  0  0  0  0  0  0  0  0  0
   58.9117   -1.3562  -17.3404 N   0  0  0  0  0  0  0  0  0  0  0  0
   57.7831   -2.0587  -17.2332 C   0  0  0  0  0  0  0  0  0  0  0  0
   56.4944   -1.7110  -17.5800 C   0  0  0  0  0  0  0  0  0  0  0  0
   55.5156   -2.6326  -17.3092 C   0  0  0  0  0  0  0  0  0  0  0  0
   55.7956   -3.8753  -16.7109 C   0  0  0  0  0  0  0  0  0  0  0  0
   57.0913   -4.1772  -16.3809 C   0  0  0  0  0  0  0  0  0  0  0  0
   58.0938   -3.2756  -16.6365 C   0  0  0  0  0  0  0  0  0  0  0  0
   58.9818   -0.3870  -17.7588 H   0  0  0  0  0  0  0  0  0  0  0  0
   61.2577   -7.6588   -8.8758 C   0  0  0  0  0  0  0  0  0  0  0  0
   61.7546   -9.0181   -8.8823 C   0  0  0  0  0  0  0  0  0  0  0  0
   62.6268   -9.6313   -9.7758 N   0  0  0  0  0  0  0  0  0  0  0  0
   61.3344   -9.7760   -7.9233 O   0  0  0  0  0  0  0  0  0  0  0  0
   63.3486   -9.1096  -10.2938 H   0  0  0  0  0  0  0  0  0  0  0  0
   62.6240  -10.6715   -9.9840 H   0  0  0  0  0  0  0  0  0  0  0  0
   64.4298   -7.8308  -12.3406 C   0  0  0  0  0  0  0  0  0  0  0  0
   63.8786   -9.0632  -12.9264 C   0  0  0  0  0  0  0  0  0  0  0  0
   64.6840   -9.5513  -14.0859 C   0  0  0  0  0  0  0  0  0  0  0  0
   64.2500  -10.6425  -14.8337 N   0  0  0  0  0  0  0  0  0  0  0  0
   65.7542   -8.9497  -14.3691 O   0  0  0  0  0  0  0  0  0  0  0  0
   63.5400  -10.5297  -15.5834 H   0  0  0  0  0  0  0  0  0  0  0  0
   64.6315  -11.5888  -14.6707 H   0  0  0  0  0  0  0  0  0  0  0  0
 33 34  1  0  0  0
 34 31  1  0  0  0
 31 32  1  0  0  0
 31  1  1  0  0  0
  1  2  1  0  0  0
  2  3  1  0  0  0
  3  4  2  0  0  0
  3  5  1  0  0  0
  5 35  1  0  0  0
 35 36  1  0  0  0
 36 37  2  0  0  0
 37 38  1  0  0  0
 38 39  1  0  0  0
 39 40  2  0  0  0
 40 41  1  0  0  0
 41 42  2  0  0  0
 42 43  1  0  0  0
 43 44  2  0  0  0
  5  6  1  0  0  0
  6  7  1  0  0  0
  7  8  2  0  0  0
  7  9  1  0  0  0
  9 10  1  0  0  0
 10 11  1  0  0  0
 11 12  2  0  0  0
 11 13  1  0  0  0
 13 46  1  0  0  0
 46 47  1  0  0  0
 47 48  1  0  0  0
 47 49  2  0  0  0
 13 14  1  0  0  0
 14 15  1  0  0  0
 15 16  2  0  0  0
 15 17  1  0  0  0
 17 52  1  0  0  0
 52 53  1  0  0  0
 53 54  1  0  0  0
 54 55  1  0  0  0
 54 56  2  0  0  0
 17 18  1  0  0  0
 18 19  1  0  0  0
 19 20  2  0  0  0
  9 26  1  0  0  0
 26 27  1  0  0  0
 26 28  2  0  0  0
 19  1  1  0  0  0
 44 36  1  0  0  0
 44 39  1  0  0  0
  2 21  1  0  0  0
 38 45  1  0  0  0
  6 22  1  0  0  0
 10 23  1  0  0  0
 48 50  1  0  0  0
 48 51  1  0  0  0
 14 24  1  0  0  0
 55 57  1  0  0  0
 55 58  1  0  0  0
 18 25  1  0  0  0
 27 29  1  0  0  0
 27 30  1  0  0  0
M  END
> <minimizedAffinity>
2.53425

> <CNNscore>
0.4082133174

> <CNNaffinity>
5.5572595596

> <CNN_VS>
2.2685472965

> <CNNaffinity_variance>
0.7266854048

$$$$
[H]c1c([H])c([H])c2c(c1[H])c(C([H])([H])[C@@]1([H])C(=O)N([H])[C@@]([H])([C@@]([H])(C([H])([H])[H])C([H])([H])C([H])([H])[H])C(=O)N([H])[C@@]([H])(C([H])([H])C([H])([H])C(=O)N([H])[H])C(=O)N([H])[C@@]([H])(C([H])([H])C(=O)N([H])[H])C(=O)N([H])[C@]([H])(C(=O)N([H])[H])C(=O)N1[H])c([H])n2[H]


 58 60  0  0  0  0  0  0  0  0999 V2000
   61.9665   -7.6057   -9.0983 C   0  0  0  0  0  0  0  0  0  0  0  0
   61.7089   -6.1975   -8.8526 N   0  0  0  0  0  0  0  0  0  0  0  0
   60.4507   -5.6225   -8.5243 C   0  0  0  0  0  0  0  0  0  0  0  0
   60.4302   -4.6151   -7.7949 O   0  0  0  0  0  0  0  0  0  0  0  0
   59.1309   -6.1576   -8.9971 C   0  0  0  0  0  0  0  0  0  0  0  0
   58.1064   -5.1409   -8.8510 N   0  0  0  0  0  0  0  0  0  0  0  0
   56.9734   -5.1570   -7.9959 C   0  0  0  0  0  0  0  0  0  0  0  0
   55.8567   -4.9215   -8.5809 O   0  0  0  0  0  0  0  0  0  0  0  0
   56.9375   -5.3980   -6.5684 C   0  0  0  0  0  0  0  0  0  0  0  0
   56.7154   -6.7767   -6.2012 N   0  0  0  0  0  0  0  0  0  0  0  0
   57.0103   -7.4990   -5.0514 C   0  0  0  0  0  0  0  0  0  0  0  0
   55.9645   -7.9777   -4.4235 O   0  0  0  0  0  0  0  0  0  0  0  0
   58.2587   -7.8397   -4.4018 C   0  0  0  0  0  0  0  0  0  0  0  0
   59.4328   -7.0878   -4.6196 N   0  0  0  0  0  0  0  0  0  0  0  0
   60.7201   -7.6094   -4.9377 C   0  0  0  0  0  0  0  0  0  0  0  0
   61.7058   -7.2000   -4.1276 O   0  0  0  0  0  0  0  0  0  0  0  0
   61.1904   -8.5032   -5.9433 C   0  0  0  0  0  0  0  0  0  0  0  0
   62.4415   -8.0106   -6.5769 N   0  0  0  0  0  0  0  0  0  0  0  0
   62.7744   -8.1484   -7.9280 C   0  0  0  0  0  0  0  0  0  0  0  0
   63.8399   -8.7783   -8.2279 O   0  0  0  0  0  0  0  0  0  0  0  0
   62.5150   -5.5463   -8.9182 H   0  0  0  0  0  0  0  0  0  0  0  0
   58.2503   -4.2827   -9.4810 H   0  0  0  0  0  0  0  0  0  0  0  0
   56.2006   -7.2985   -7.0185 H   0  0  0  0  0  0  0  0  0  0  0  0
   59.4069   -6.0491   -4.5501 H   0  0  0  0  0  0  0  0  0  0  0  0
   63.0933   -7.5559   -5.9116 H   0  0  0  0  0  0  0  0  0  0  0  0
   56.0318   -4.5183   -5.7610 C   0  0  0  0  0  0  0  0  0  0  0  0
   54.7040   -5.0376   -5.4632 N   0  0  0  0  0  0  0  0  0  0  0  0
   56.2854   -3.3995   -5.3223 O   0  0  0  0  0  0  0  0  0  0  0  0
   54.2606   -5.7990   -5.9613 H   0  0  0  0  0  0  0  0  0  0  0  0
   54.2167   -4.5853   -4.6328 H   0  0  0  0  0  0  0  0  0  0  0  0
   62.8622   -7.6470  -10.3506 C   0  0  0  0  0  0  0  0  0  0  0  0
   64.0527   -6.7080  -10.1175 C   0  0  0  0  0  0  0  0  0  0  0  0
   64.6146   -8.8535  -11.5382 C   0  0  0  0  0  0  0  0  0  0  0  0
   63.3721   -9.0135  -10.6863 C   0  0  0  0  0  0  0  0  0  0  0  0
   59.1948   -6.4892  -10.4453 C   0  0  0  0  0  0  0  0  0  0  0  0
   58.7845   -5.4352  -11.3957 C   0  0  0  0  0  0  0  0  0  0  0  0
   57.4392   -5.0278  -11.4489 C   0  0  0  0  0  0  0  0  0  0  0  0
   57.3877   -4.0543  -12.3466 N   0  0  0  0  0  0  0  0  0  0  0  0
   58.5900   -3.8107  -12.8698 C   0  0  0  0  0  0  0  0  0  0  0  0
   58.9565   -2.9151  -13.8523 C   0  0  0  0  0  0  0  0  0  0  0  0
   60.2768   -2.9168  -14.2234 C   0  0  0  0  0  0  0  0  0  0  0  0
   61.2224   -3.7800  -13.6393 C   0  0  0  0  0  0  0  0  0  0  0  0
   60.8122   -4.6557  -12.6678 C   0  0  0  0  0  0  0  0  0  0  0  0
   59.4974   -4.6807  -12.2755 C   0  0  0  0  0  0  0  0  0  0  0  0
   56.5002   -3.5418  -12.6092 H   0  0  0  0  0  0  0  0  0  0  0  0
   58.0070   -8.1652   -2.9273 C   0  0  0  0  0  0  0  0  0  0  0  0
   59.1339   -8.6934   -2.1886 C   0  0  0  0  0  0  0  0  0  0  0  0
   59.1689   -9.2408   -0.9102 N   0  0  0  0  0  0  0  0  0  0  0  0
   60.2736   -8.6568   -2.7975 O   0  0  0  0  0  0  0  0  0  0  0  0
   58.3602   -9.7207   -0.4894 H   0  0  0  0  0  0  0  0  0  0  0  0
   60.0223   -9.2163   -0.2806 H   0  0  0  0  0  0  0  0  0  0  0  0
   61.5533   -9.8773   -5.4941 C   0  0  0  0  0  0  0  0  0  0  0  0
   62.9493  -10.3402   -5.4448 C   0  0  0  0  0  0  0  0  0  0  0  0
   63.5351  -10.2357   -4.0746 C   0  0  0  0  0  0  0  0  0  0  0  0
   62.7056  -10.1747   -2.9583 N   0  0  0  0  0  0  0  0  0  0  0  0
   64.7894  -10.2104   -3.9584 O   0  0  0  0  0  0  0  0  0  0  0  0
   62.3021  -11.0371   -2.5431 H   0  0  0  0  0  0  0  0  0  0  0  0
   62.4805   -9.2728   -2.5073 H   0  0  0  0  0  0  0  0  0  0  0  0
 33 34  1  0  0  0
 34 31  1  0  0  0
 31 32  1  0  0  0
 31  1  1  0  0  0
  1  2  1  0  0  0
  2  3  1  0  0  0
  3  4  2  0  0  0
  3  5  1  0  0  0
  5 35  1  0  0  0
 35 36  1  0  0  0
 36 37  2  0  0  0
 37 38  1  0  0  0
 38 39  1  0  0  0
 39 40  2  0  0  0
 40 41  1  0  0  0
 41 42  2  0  0  0
 42 43  1  0  0  0
 43 44  2  0  0  0
  5  6  1  0  0  0
  6  7  1  0  0  0
  7  8  2  0  0  0
  7  9  1  0  0  0
  9 10  1  0  0  0
 10 11  1  0  0  0
 11 12  2  0  0  0
 11 13  1  0  0  0
 13 46  1  0  0  0
 46 47  1  0  0  0
 47 48  1  0  0  0
 47 49  2  0  0  0
 13 14  1  0  0  0
 14 15  1  0  0  0
 15 16  2  0  0  0
 15 17  1  0  0  0
 17 52  1  0  0  0
 52 53  1  0  0  0
 53 54  1  0  0  0
 54 55  1  0  0  0
 54 56  2  0  0  0
 17 18  1  0  0  0
 18 19  1  0  0  0
 19 20  2  0  0  0
  9 26  1  0  0  0
 26 27  1  0  0  0
 26 28  2  0  0  0
 19  1  1  0  0  0
 44 36  1  0  0  0
 44 39  1  0  0  0
  2 21  1  0  0  0
 38 45  1  0  0  0
  6 22  1  0  0  0
 10 23  1  0  0  0
 48 50  1  0  0  0
 48 51  1  0  0  0
 14 24  1  0  0  0
 55 57  1  0  0  0
 55 58  1  0  0  0
 18 25  1  0  0  0
 27 29  1  0  0  0
 27 30  1  0  0  0
M  END
> <minimizedAffinity>
2.28339

> <CNNscore>
0.4075810313

> <CNNaffinity>
5.8503990173

> <CNN_VS>
2.3845117092

> <CNNaffinity_variance>
0.3246433139

$$$$
[H]N=C(c1c([H])c([H])c(C(=N[H])C([H])([H])[H])c(O[H])c1[H])N([H])[H]


 18 18  0  0  0  0  0  0  0  0999 V2000
   51.7114   -3.6928   -7.5182 C   0  0  0  0  0  0  0  0  0  0  0  0
   52.5209   -4.7393   -7.1476 C   0  0  0  0  0  0  0  0  0  0  0  0
   53.7960   -4.9321   -7.6458 C   0  0  0  0  0  0  0  0  0  0  0  0
   54.2888   -4.0418   -8.5554 C   0  0  0  0  0  0  0  0  0  0  0  0
   53.4929   -2.9857   -8.9398 C   0  0  0  0  0  0  0  0  0  0  0  0
   52.2260   -2.8017   -8.4393 C   0  0  0  0  0  0  0  0  0  0  0  0
   51.5219   -1.7077   -8.8982 O   0  0  0  0  0  0  0  0  0  0  0  0
   51.8941   -1.0541   -9.5711 H   0  0  0  0  0  0  0  0  0  0  0  0
   55.6144   -4.1749   -9.1233 C   0  0  0  0  0  0  0  0  0  0  0  0
   55.8932   -3.6337  -10.4157 N   0  0  0  0  0  0  0  0  0  0  0  0
   56.5338   -4.7689   -8.4830 N   0  0  0  0  0  0  0  0  0  0  0  0
   56.4742   -4.1594  -11.1076 H   0  0  0  0  0  0  0  0  0  0  0  0
   55.5372   -2.7059  -10.7251 H   0  0  0  0  0  0  0  0  0  0  0  0
   56.4957   -5.2089   -7.5520 H   0  0  0  0  0  0  0  0  0  0  0  0
   50.0270   -3.7293   -5.5671 C   0  0  0  0  0  0  0  0  0  0  0  0
   50.3800   -3.4981   -6.9927 C   0  0  0  0  0  0  0  0  0  0  0  0
   49.4429   -3.1097   -7.7664 N   0  0  0  0  0  0  0  0  0  0  0  0
   49.4876   -2.9040   -8.7487 H   0  0  0  0  0  0  0  0  0  0  0  0
 15 16  1  0  0  0
 16 17  2  0  0  0
 16  1  1  0  0  0
  1  2  2  0  0  0
  2  3  1  0  0  0
  3  4  2  0  0  0
  4  5  1  0  0  0
  5  6  2  0  0  0
  6  7  1  0  0  0
  4  9  1  0  0  0
  9 10  1  0  0  0
  9 11  2  0  0  0
  6  1  1  0  0  0
 17 18  1  0  0  0
  7  8  1  0  0  0
 10 12  1  0  0  0
 10 13  1  0  0  0
 11 14  1  0  0  0
M  END
> <minimizedAffinity>
-7.31790

> <CNNscore>
0.5083475709

> <CNNaffinity>
4.8175172806

> <CNN_VS>
2.4489731789

> <CNNaffinity_variance>
0.2170453817

$$$$
[H]N=C(c1c([H])c([H])c(C(=N[H])C([H])([H])[H])c(O[H])c1[H])N([H])[H]


 18 18  0  0  0  0  0  0  0  0999 V2000
   52.4060   -3.9429   -7.6860 C   0  0  0  0  0  0  0  0  0  0  0  0
   53.4079   -4.7785   -7.2548 C   0  0  0  0  0  0  0  0  0  0  0  0
   54.6419   -4.8727   -7.8709 C   0  0  0  0  0  0  0  0  0  0  0  0
   54.8908   -4.0992   -8.9675 C   0  0  0  0  0  0  0  0  0  0  0  0
   53.8993   -3.2548   -9.4155 C   0  0  0  0  0  0  0  0  0  0  0  0
   52.6751   -3.1676   -8.7968 C   0  0  0  0  0  0  0  0  0  0  0  0
   51.7602   -2.2865   -9.3354 O   0  0  0  0  0  0  0  0  0  0  0  0
   51.9527   -1.7181  -10.1468 H   0  0  0  0  0  0  0  0  0  0  0  0
   56.1578   -4.1406   -9.6679 C   0  0  0  0  0  0  0  0  0  0  0  0
   57.2462   -4.8916   -9.1275 N   0  0  0  0  0  0  0  0  0  0  0  0
   56.3117   -3.5148  -10.7601 N   0  0  0  0  0  0  0  0  0  0  0  0
   58.2220   -4.5174   -9.1450 H   0  0  0  0  0  0  0  0  0  0  0  0
   57.1219   -5.8314   -8.6978 H   0  0  0  0  0  0  0  0  0  0  0  0
   55.6342   -2.9347  -11.2763 H   0  0  0  0  0  0  0  0  0  0  0  0
   50.3475   -5.0390   -6.5877 C   0  0  0  0  0  0  0  0  0  0  0  0
   51.1191   -3.8501   -7.0364 C   0  0  0  0  0  0  0  0  0  0  0  0
   50.5960   -2.7059   -6.8252 N   0  0  0  0  0  0  0  0  0  0  0  0
   50.9621   -1.7988   -7.0544 H   0  0  0  0  0  0  0  0  0  0  0  0
 15 16  1  0  0  0
 16 17  2  0  0  0
 16  1  1  0  0  0
  1  2  2  0  0  0
  2  3  1  0  0  0
  3  4  2  0  0  0
  4  5  1  0  0  0
  5  6  2  0  0  0
  6  7  1  0  0  0
  4  9  1  0  0  0
  9 10  1  0  0  0
  9 11  2  0  0  0
  6  1  1  0  0  0
 17 18  1  0  0  0
  7  8  1  0  0  0
 10 12  1  0  0  0
 10 13  1  0  0  0
 11 14  1  0  0  0
M  END
> <minimizedAffinity>
-7.06191

> <CNNscore>
0.4353714585

> <CNNaffinity>
4.5983238220

> <CNN_VS>
2.0019788742

> <CNNaffinity_variance>
0.1908704787

$$$$
[H]N=C(c1c([H])c([H])c(C(=N[H])C([H])([H])[H])c(O[H])c1[H])N([H])[H]


 18 18  0  0  0  0  0  0  0  0999 V2000
   50.3423   -4.4656   -4.9477 C   0  0  0  0  0  0  0  0  0  0  0  0
   51.4117   -5.1167   -5.5136 C   0  0  0  0  0  0  0  0  0  0  0  0
   52.0242   -4.7061   -6.6829 C   0  0  0  0  0  0  0  0  0  0  0  0
   51.5505   -3.5954   -7.3192 C   0  0  0  0  0  0  0  0  0  0  0  0
   50.4791   -2.9284   -6.7679 C   0  0  0  0  0  0  0  0  0  0  0  0
   49.8760   -3.3438   -5.6047 C   0  0  0  0  0  0  0  0  0  0  0  0
   48.8105   -2.5961   -5.1477 O   0  0  0  0  0  0  0  0  0  0  0  0
   48.4666   -1.7759   -5.6246 H   0  0  0  0  0  0  0  0  0  0  0  0
   52.1377   -3.1020   -8.5477 C   0  0  0  0  0  0  0  0  0  0  0  0
   53.2305   -3.8010   -9.1458 N   0  0  0  0  0  0  0  0  0  0  0  0
   51.6901   -2.0520   -9.1003 N   0  0  0  0  0  0  0  0  0  0  0  0
   54.0429   -3.2854   -9.5541 H   0  0  0  0  0  0  0  0  0  0  0  0
   53.2696   -4.8396   -9.2026 H   0  0  0  0  0  0  0  0  0  0  0  0
   50.9172   -1.4400   -8.8000 H   0  0  0  0  0  0  0  0  0  0  0  0
   50.4405   -5.5885   -2.6294 C   0  0  0  0  0  0  0  0  0  0  0  0
   49.7078   -4.9009   -3.7252 C   0  0  0  0  0  0  0  0  0  0  0  0
   48.4603   -4.6987   -3.5508 N   0  0  0  0  0  0  0  0  0  0  0  0
   47.8059   -4.2549   -4.1705 H   0  0  0  0  0  0  0  0  0  0  0  0
 15 16  1  0  0  0
 16 17  2  0  0  0
 16  1  1  0  0  0
  1  2  2  0  0  0
  2  3  1  0  0  0
  3  4  2  0  0  0
  4  5  1  0  0  0
  5  6  2  0  0  0
  6  7  1  0  0  0
  4  9  1  0  0  0
  9 10  1  0  0  0
  9 11  2  0  0  0
  6  1  1  0  0  0
 17 18  1  0  0  0
  7  8  1  0  0  0
 10 12  1  0  0  0
 10 13  1  0  0  0
 11 14  1  0  0  0
M  END
> <minimizedAffinity>
-7.32617

> <CNNscore>
0.4212514460

> <CNNaffinity>
4.6905117035

> <CNN_VS>
1.9758847952

> <CNNaffinity_variance>
0.3681238294

$$$$
[H]N=C(c1c([H])c([H])c(C(=N[H])C([H])([H])[H])c(O[H])c1[H])N([H])[H]


 18 18  0  0  0  0  0  0  0  0999 V2000
   51.6322   -3.3741   -7.5085 C   0  0  0  0  0  0  0  0  0  0  0  0
   51.6114   -4.4432   -6.6457 C   0  0  0  0  0  0  0  0  0  0  0  0
   50.6975   -4.5770   -5.6172 C   0  0  0  0  0  0  0  0  0  0  0  0
   49.7601   -3.6011   -5.4385 C   0  0  0  0  0  0  0  0  0  0  0  0
   49.7641   -2.5210   -6.2930 C   0  0  0  0  0  0  0  0  0  0  0  0
   50.6767   -2.3961   -7.3133 C   0  0  0  0  0  0  0  0  0  0  0  0
   50.5835   -1.2705   -8.1053 O   0  0  0  0  0  0  0  0  0  0  0  0
   49.8869   -0.5535   -7.9662 H   0  0  0  0  0  0  0  0  0  0  0  0
   48.7692   -3.6684   -4.3845 C   0  0  0  0  0  0  0  0  0  0  0  0
   48.8262   -4.7201   -3.4194 N   0  0  0  0  0  0  0  0  0  0  0  0
   47.8480   -2.8002   -4.3089 N   0  0  0  0  0  0  0  0  0  0  0  0
   47.9581   -5.2046   -3.0965 H   0  0  0  0  0  0  0  0  0  0  0  0
   49.7197   -5.0487   -2.9985 H   0  0  0  0  0  0  0  0  0  0  0  0
   47.6695   -1.9891   -4.9190 H   0  0  0  0  0  0  0  0  0  0  0  0
   54.0255   -3.6031   -8.4383 C   0  0  0  0  0  0  0  0  0  0  0  0
   52.5905   -3.2418   -8.5813 C   0  0  0  0  0  0  0  0  0  0  0  0
   52.2151   -2.7963   -9.7162 N   0  0  0  0  0  0  0  0  0  0  0  0
   51.2971   -2.5035  -10.0008 H   0  0  0  0  0  0  0  0  0  0  0  0
 15 16  1  0  0  0
 16 17  2  0  0  0
 16  1  1  0  0  0
  1  2  2  0  0  0
  2  3  1  0  0  0
  3  4  2  0  0  0
  4  5  1  0  0  0
  5  6  2  0  0  0
  6  7  1  0  0  0
  4  9  1  0  0  0
  9 10  1  0  0  0
  9 11  2  0  0  0
  6  1  1  0  0  0
 17 18  1  0  0  0
  7  8  1  0  0  0
 10 12  1  0  0  0
 10 13  1  0  0  0
 11 14  1  0  0  0
M  END
> <minimizedAffinity>
-7.57887

> <CNNscore>
0.3855906129

> <CNNaffinity>
4.6937823296

> <CNN_VS>
1.8098783493

> <CNNaffinity_variance>
0.3745132685

$$$$
[H]N=C(c1c([H])c([H])c(C(=N[H])C([H])([H])[H])c(O[H])c1[H])N([H])[H]


 18 18  0  0  0  0  0  0  0  0999 V2000
   56.0420   -4.6696   -8.8856 C   0  0  0  0  0  0  0  0  0  0  0  0
   57.3132   -5.1589   -9.0664 C   0  0  0  0  0  0  0  0  0  0  0  0
   58.0423   -4.9805  -10.2273 C   0  0  0  0  0  0  0  0  0  0  0  0
   57.4803   -4.2825  -11.2568 C   0  0  0  0  0  0  0  0  0  0  0  0
   56.2068   -3.7837  -11.0954 C   0  0  0  0  0  0  0  0  0  0  0  0
   55.4889   -3.9659   -9.9374 C   0  0  0  0  0  0  0  0  0  0  0  0
   54.2226   -3.4206   -9.8909 O   0  0  0  0  0  0  0  0  0  0  0  0
   53.8146   -2.9057  -10.6571 H   0  0  0  0  0  0  0  0  0  0  0  0
   58.1794   -4.0531  -12.5042 C   0  0  0  0  0  0  0  0  0  0  0  0
   57.4765   -3.5173  -13.6265 N   0  0  0  0  0  0  0  0  0  0  0  0
   59.4137   -4.3238  -12.6112 N   0  0  0  0  0  0  0  0  0  0  0  0
   57.6392   -3.8848  -14.5915 H   0  0  0  0  0  0  0  0  0  0  0  0
   56.7805   -2.7483  -13.5388 H   0  0  0  0  0  0  0  0  0  0  0  0
   60.0565   -4.7106  -11.9046 H   0  0  0  0  0  0  0  0  0  0  0  0
   55.8608   -4.6479   -6.3143 C   0  0  0  0  0  0  0  0  0  0  0  0
   55.2867   -4.8601   -7.6692 C   0  0  0  0  0  0  0  0  0  0  0  0
   54.0666   -5.2277   -7.7308 N   0  0  0  0  0  0  0  0  0  0  0  0
   53.5111   -5.4183   -8.5459 H   0  0  0  0  0  0  0  0  0  0  0  0
 15 16  1  0  0  0
 16 17  2  0  0  0
 16  1  1  0  0  0
  1  2  2  0  0  0
  2  3  1  0  0  0
  3  4  2  0  0  0
  4  5  1  0  0  0
  5  6  2  0  0  0
  6  7  1  0  0  0
  4  9  1  0  0  0
  9 10  1  0  0  0
  9 11  2  0  0  0
  6  1  1  0  0  0
 17 18  1  0  0  0
  7  8  1  0  0  0
 10 12  1  0  0  0
 10 13  1  0  0  0
 11 14  1  0  0  0
M  END
> <minimizedAffinity>
-6.31473

> <CNNscore>
0.3819311261

> <CNNaffinity>
3.7615408897

> <CNN_VS>
1.4366495609

> <CNNaffinity_variance>
0.1451292932

$$$$
[H]N=C(c1c([H])c([H])c(C(=N[H])C([H])([H])[H])c(O[H])c1[H])N([H])[H]


 18 18  0  0  0  0  0  0  0  0999 V2000
   54.1413   -4.2417   -8.1751 C   0  0  0  0  0  0  0  0  0  0  0  0
   53.6188   -5.0058   -7.1596 C   0  0  0  0  0  0  0  0  0  0  0  0
   52.3575   -4.8108   -6.6285 C   0  0  0  0  0  0  0  0  0  0  0  0
   51.5794   -3.8084   -7.1312 C   0  0  0  0  0  0  0  0  0  0  0  0
   52.0849   -3.0311   -8.1495 C   0  0  0  0  0  0  0  0  0  0  0  0
   53.3404   -3.2321   -8.6717 C   0  0  0  0  0  0  0  0  0  0  0  0
   53.7395   -2.3909   -9.6897 O   0  0  0  0  0  0  0  0  0  0  0  0
   53.1575   -1.6520  -10.0556 H   0  0  0  0  0  0  0  0  0  0  0  0
   50.2478   -3.5410   -6.6284 C   0  0  0  0  0  0  0  0  0  0  0  0
   49.3112   -2.8270   -7.4370 N   0  0  0  0  0  0  0  0  0  0  0  0
   49.9031   -3.9355   -5.4736 N   0  0  0  0  0  0  0  0  0  0  0  0
   48.6878   -2.0965   -7.0242 H   0  0  0  0  0  0  0  0  0  0  0  0
   49.2066   -2.9969   -8.4586 H   0  0  0  0  0  0  0  0  0  0  0  0
   50.4533   -4.4562   -4.7749 H   0  0  0  0  0  0  0  0  0  0  0  0
   56.6632   -4.6894   -7.8840 C   0  0  0  0  0  0  0  0  0  0  0  0
   55.4604   -4.4520   -8.7250 C   0  0  0  0  0  0  0  0  0  0  0  0
   55.6304   -4.4387   -9.9892 N   0  0  0  0  0  0  0  0  0  0  0  0
   54.9463   -4.2955  -10.7109 H   0  0  0  0  0  0  0  0  0  0  0  0
 15 16  1  0  0  0
 16 17  2  0  0  0
 16  1  1  0  0  0
  1  2  2  0  0  0
  2  3  1  0  0  0
  3  4  2  0  0  0
  4  5  1  0  0  0
  5  6  2  0  0  0
  6  7  1  0  0  0
  4  9  1  0  0  0
  9 10  1  0  0  0
  9 11  2  0  0  0
  6  1  1  0  0  0
 17 18  1  0  0  0
  7  8  1  0  0  0
 10 12  1  0  0  0
 10 13  1  0  0  0
 11 14  1  0  0  0
M  END
> <minimizedAffinity>
-6.99028

> <CNNscore>
0.3769000471

> <CNNaffinity>
4.6419959068

> <CNN_VS>
1.7495684624

> <CNNaffinity_variance>
0.1641623080

$$$$
[H]N=C(c1c([H])c([H])c(C(=N[H])C([H])([H])[H])c(O[H])c1[H])N([H])[H]


 18 18  0  0  0  0  0  0  0  0999 V2000
   52.8361   -3.9124   -8.1446 C   0  0  0  0  0  0  0  0  0  0  0  0
   53.0057   -5.0057   -7.3298 C   0  0  0  0  0  0  0  0  0  0  0  0
   52.1934   -5.2842   -6.2465 C   0  0  0  0  0  0  0  0  0  0  0  0
   51.1638   -4.4350   -5.9603 C   0  0  0  0  0  0  0  0  0  0  0  0
   50.9770   -3.3332   -6.7652 C   0  0  0  0  0  0  0  0  0  0  0  0
   51.7897   -3.0640   -7.8405 C   0  0  0  0  0  0  0  0  0  0  0  0
   51.5059   -1.9308   -8.5744 O   0  0  0  0  0  0  0  0  0  0  0  0
   50.7423   -1.3082   -8.3557 H   0  0  0  0  0  0  0  0  0  0  0  0
   50.2693   -4.6577   -4.8433 C   0  0  0  0  0  0  0  0  0  0  0  0
   50.3914   -5.8453   -4.0588 N   0  0  0  0  0  0  0  0  0  0  0  0
   49.3754   -3.8063   -4.5531 N   0  0  0  0  0  0  0  0  0  0  0  0
   49.5461   -6.3688   -3.7362 H   0  0  0  0  0  0  0  0  0  0  0  0
   51.3122   -6.2396   -3.7757 H   0  0  0  0  0  0  0  0  0  0  0  0
   49.1592   -2.9102   -5.0138 H   0  0  0  0  0  0  0  0  0  0  0  0
   55.1239   -4.0152   -9.3281 C   0  0  0  0  0  0  0  0  0  0  0  0
   53.6894   -3.6285   -9.2751 C   0  0  0  0  0  0  0  0  0  0  0  0
   53.2156   -3.0179  -10.2901 N   0  0  0  0  0  0  0  0  0  0  0  0
   52.2807   -2.6809  -10.4373 H   0  0  0  0  0  0  0  0  0  0  0  0
 15 16  1  0  0  0
 16 17  2  0  0  0
 16  1  1  0  0  0
  1  2  2  0  0  0
  2  3  1  0  0  0
  3  4  2  0  0  0
  4  5  1  0  0  0
  5  6  2  0  0  0
  6  7  1  0  0  0
  4  9  1  0  0  0
  9 10  1  0  0  0
  9 11  2  0  0  0
  6  1  1  0  0  0
 17 18  1  0  0  0
  7  8  1  0  0  0
 10 12  1  0  0  0
 10 13  1  0  0  0
 11 14  1  0  0  0
M  END
> <minimizedAffinity>
-6.83247

> <CNNscore>
0.3154504001

> <CNNaffinity>
4.4723501205

> <CNN_VS>
1.4108046293

> <CNNaffinity_variance>
0.2299962938

$$$$
[H]N=C(c1c([H])c([H])c(C(=N[H])C([H])([H])[H])c(O[H])c1[H])N([H])[H]


 18 18  0  0  0  0  0  0  0  0999 V2000
   58.2504   -5.4457   -9.2358 C   0  0  0  0  0  0  0  0  0  0  0  0
   57.5757   -5.2092   -8.0625 C   0  0  0  0  0  0  0  0  0  0  0  0
   56.3933   -4.4967   -7.9916 C   0  0  0  0  0  0  0  0  0  0  0  0
   55.8567   -3.9957   -9.1423 C   0  0  0  0  0  0  0  0  0  0  0  0
   56.5178   -4.2218  -10.3291 C   0  0  0  0  0  0  0  0  0  0  0  0
   57.6934   -4.9316  -10.3903 C   0  0  0  0  0  0  0  0  0  0  0  0
   58.2651   -5.0942  -11.6353 O   0  0  0  0  0  0  0  0  0  0  0  0
   57.8614   -4.7203  -12.4813 H   0  0  0  0  0  0  0  0  0  0  0  0
   54.6218   -3.2392   -9.1509 C   0  0  0  0  0  0  0  0  0  0  0  0
   53.3996   -3.8750   -9.5284 N   0  0  0  0  0  0  0  0  0  0  0  0
   54.6140   -2.0135   -8.8256 N   0  0  0  0  0  0  0  0  0  0  0  0
   52.7033   -3.3886  -10.1377 H   0  0  0  0  0  0  0  0  0  0  0  0
   53.1480   -4.8369   -9.2202 H   0  0  0  0  0  0  0  0  0  0  0  0
   55.4002   -1.4152   -8.5323 H   0  0  0  0  0  0  0  0  0  0  0  0
   60.7371   -5.7523   -8.6298 C   0  0  0  0  0  0  0  0  0  0  0  0
   59.4857   -6.1916   -9.3016 C   0  0  0  0  0  0  0  0  0  0  0  0
   59.5337   -7.2829   -9.9605 N   0  0  0  0  0  0  0  0  0  0  0  0
   58.7993   -7.7357  -10.4752 H   0  0  0  0  0  0  0  0  0  0  0  0
 15 16  1  0  0  0
 16 17  2  0  0  0
 16  1  1  0  0  0
  1  2  2  0  0  0
  2  3  1  0  0  0
  3  4  2  0  0  0
  4  5  1  0  0  0
  5  6  2  0  0  0
  6  7  1  0  0  0
  4  9  1  0  0  0
  9 10  1  0  0  0
  9 11  2  0  0  0
  6  1  1  0  0  0
 17 18  1  0  0  0
  7  8  1  0  0  0
 10 12  1  0  0  0
 10 13  1  0  0  0
 11 14  1  0  0  0
M  END
> <minimizedAffinity>
-5.96070

> <CNNscore>
0.3151383400

> <CNNaffinity>
3.6182048321

> <CNN_VS>
1.1402350664

> <CNNaffinity_variance>
0.1237615123

$$$$
[H]N=C(c1c([H])c([H])c(C(=N[H])C([H])([H])[H])c(O[H])c1[H])N([H])[H]


 18 18  0  0  0  0  0  0  0  0999 V2000
   57.1086   -4.4077  -11.3147 C   0  0  0  0  0  0  0  0  0  0  0  0
   55.9251   -4.0422  -10.7200 C   0  0  0  0  0  0  0  0  0  0  0  0
   55.6741   -4.1840   -9.3680 C   0  0  0  0  0  0  0  0  0  0  0  0
   56.6462   -4.7142   -8.5700 C   0  0  0  0  0  0  0  0  0  0  0  0
   57.8399   -5.0869   -9.1470 C   0  0  0  0  0  0  0  0  0  0  0  0
   58.0810   -4.9424  -10.4925 C   0  0  0  0  0  0  0  0  0  0  0  0
   59.3140   -5.3509  -10.9573 O   0  0  0  0  0  0  0  0  0  0  0  0
   60.0274   -5.7420  -10.3601 H   0  0  0  0  0  0  0  0  0  0  0  0
   56.4599   -4.8947   -7.1452 C   0  0  0  0  0  0  0  0  0  0  0  0
   56.7943   -6.1426   -6.5356 N   0  0  0  0  0  0  0  0  0  0  0  0
   56.0014   -3.9531   -6.4303 N   0  0  0  0  0  0  0  0  0  0  0  0
   56.1805   -6.5682   -5.8044 H   0  0  0  0  0  0  0  0  0  0  0  0
   57.6505   -6.6788   -6.7861 H   0  0  0  0  0  0  0  0  0  0  0  0
   55.7154   -3.0042   -6.7130 H   0  0  0  0  0  0  0  0  0  0  0  0
   56.3917   -4.6629  -13.7776 C   0  0  0  0  0  0  0  0  0  0  0  0
   57.3634   -4.2561  -12.7285 C   0  0  0  0  0  0  0  0  0  0  0  0
   58.4665   -3.7521  -13.1241 N   0  0  0  0  0  0  0  0  0  0  0  0
   59.2374   -3.4219  -12.5709 H   0  0  0  0  0  0  0  0  0  0  0  0
 15 16  1  0  0  0
 16 17  2  0  0  0
 16  1  1  0  0  0
  1  2  2  0  0  0
  2  3  1  0  0  0
  3  4  2  0  0  0
  4  5  1  0  0  0
  5  6  2  0  0  0
  6  7  1  0  0  0
  4  9  1  0  0  0
  9 10  1  0  0  0
  9 11  2  0  0  0
  6  1  1  0  0  0
 17 18  1  0  0  0
  7  8  1  0  0  0
 10 12  1  0  0  0
 10 13  1  0  0  0
 11 14  1  0  0  0
M  END
> <minimizedAffinity>
-6.29981

> <CNNscore>
0.3070324659

> <CNNaffinity>
3.5890908241

> <CNN_VS>
1.1019674540

> <CNNaffinity_variance>
0.1223239154

$$$$
[H]OC([H])([H])[C@@]1([H])O[C@@]([H])(n2c([H])nc3c(N([H])[C@]4([H])C([H])([H])C([H])([H])C([H])([H])C([H])([H])[C@@]4([H])C([H])([H])O[H])nc([H])nc32)[C@]([H])(O[H])[C@]1([H])O[H]


 32 35  0  0  0  0  0  0  0  0999 V2000
   59.2744   -6.1645   -9.4503 N   0  0  0  0  0  0  0  0  0  0  0  0
   59.1593   -5.9303   -8.1314 C   0  0  0  0  0  0  0  0  0  0  0  0
   58.1085   -5.1436   -7.9263 N   0  0  0  0  0  0  0  0  0  0  0  0
   57.5101   -4.8448   -9.1163 C   0  0  0  0  0  0  0  0  0  0  0  0
   56.4077   -4.0806   -9.4382 C   0  0  0  0  0  0  0  0  0  0  0  0
   56.0984   -4.0058  -10.7518 N   0  0  0  0  0  0  0  0  0  0  0  0
   56.8184   -4.6368  -11.6973 C   0  0  0  0  0  0  0  0  0  0  0  0
   57.8949   -5.3800  -11.3570 N   0  0  0  0  0  0  0  0  0  0  0  0
   58.2713   -5.5053  -10.0595 C   0  0  0  0  0  0  0  0  0  0  0  0
   61.6458   -8.5953  -10.2277 C   0  0  0  0  0  0  0  0  0  0  0  0
   60.6554   -8.0674   -9.4006 O   0  0  0  0  0  0  0  0  0  0  0  0
   60.2489   -6.9524  -10.1508 C   0  0  0  0  0  0  0  0  0  0  0  0
   61.5419   -6.2484  -10.4014 C   0  0  0  0  0  0  0  0  0  0  0  0
   61.4862   -5.7053  -11.6911 O   0  0  0  0  0  0  0  0  0  0  0  0
   62.5439   -7.3946  -10.4229 C   0  0  0  0  0  0  0  0  0  0  0  0
   63.2151   -7.4352  -11.6397 O   0  0  0  0  0  0  0  0  0  0  0  0
   62.3043   -5.2381  -11.9488 H   0  0  0  0  0  0  0  0  0  0  0  0
   62.7704   -8.1383  -12.1875 H   0  0  0  0  0  0  0  0  0  0  0  0
   61.5131  -10.7145   -9.1184 O   0  0  0  0  0  0  0  0  0  0  0  0
   62.3840   -9.7339   -9.5511 C   0  0  0  0  0  0  0  0  0  0  0  0
   60.7069  -10.6947   -9.7219 H   0  0  0  0  0  0  0  0  0  0  0  0
   55.6479   -3.4144   -8.4413 N   0  0  0  0  0  0  0  0  0  0  0  0
   55.9388   -2.4332   -8.2002 H   0  0  0  0  0  0  0  0  0  0  0  0
   54.5326   -3.9930   -7.7619 C   0  0  0  0  0  0  0  0  0  0  0  0
   54.6620   -5.4779   -7.5182 C   0  0  0  0  0  0  0  0  0  0  0  0
   53.6094   -5.8543   -6.5028 C   0  0  0  0  0  0  0  0  0  0  0  0
   52.2233   -5.4487   -6.9272 C   0  0  0  0  0  0  0  0  0  0  0  0
   52.1262   -4.0606   -7.4524 C   0  0  0  0  0  0  0  0  0  0  0  0
   53.2138   -3.7903   -8.5003 C   0  0  0  0  0  0  0  0  0  0  0  0
   53.0842   -2.4057   -9.0468 C   0  0  0  0  0  0  0  0  0  0  0  0
   51.7336   -2.0286   -9.0514 O   0  0  0  0  0  0  0  0  0  0  0  0
   51.3457   -2.4187   -9.8759 H   0  0  0  0  0  0  0  0  0  0  0  0
 19 20  1  0  0  0
 20 10  1  0  0  0
 10 11  1  0  0  0
 11 12  1  0  0  0
 12 13  1  0  0  0
 13 14  1  0  0  0
 13 15  1  0  0  0
 15 16  1  0  0  0
 12  1  1  0  0  0
  1  2  1  0  0  0
  2  3  2  0  0  0
  3  4  1  0  0  0
  4  5  2  0  0  0
  5 22  1  0  0  0
 22 24  1  0  0  0
 24 25  1  0  0  0
 25 26  1  0  0  0
 26 27  1  0  0  0
 27 28  1  0  0  0
 28 29  1  0  0  0
 29 30  1  0  0  0
 30 31  1  0  0  0
  5  6  1  0  0  0
  6  7  2  0  0  0
  7  8  1  0  0  0
  8  9  2  0  0  0
 15 10  1  0  0  0
  9  1  1  0  0  0
  9  4  1  0  0  0
 29 24  1  0  0  0
 19 21  1  0  0  0
 14 17  1  0  0  0
 16 18  1  0  0  0
 22 23  1  0  0  0
 31 32  1  0  0  0
M  END
> <minimizedAffinity>
-6.88319

> <CNNscore>
0.5171927810

> <CNNaffinity>
5.6960420609

> <CNN_VS>
2.9459519386

> <CNNaffinity_variance>
0.1007895321

$$$$
[H]OC([H])([H])[C@@]1([H])O[C@@]([H])(n2c([H])nc3c(N([H])[C@]4([H])C([H])([H])C([H])([H])C([H])([H])C([H])([H])[C@@]4([H])C([H])([H])O[H])nc([H])nc32)[C@]([H])(O[H])[C@]1([H])O[H]


 32 35  0  0  0  0  0  0  0  0999 V2000
   55.0046   -4.7166   -8.2765 N   0  0  0  0  0  0  0  0  0  0  0  0
   54.6330   -5.7612   -7.5159 C   0  0  0  0  0  0  0  0  0  0  0  0
   53.3785   -5.5771   -7.1191 N   0  0  0  0  0  0  0  0  0  0  0  0
   52.9002   -4.3990   -7.6159 C   0  0  0  0  0  0  0  0  0  0  0  0
   51.6810   -3.7647   -7.4966 C   0  0  0  0  0  0  0  0  0  0  0  0
   51.5599   -2.5821   -8.1396 N   0  0  0  0  0  0  0  0  0  0  0  0
   52.5650   -2.0471   -8.8568 C   0  0  0  0  0  0  0  0  0  0  0  0
   53.7507   -2.6878   -8.9589 N   0  0  0  0  0  0  0  0  0  0  0  0
   53.9524   -3.8797   -8.3428 C   0  0  0  0  0  0  0  0  0  0  0  0
   57.4375   -4.1870  -10.7131 C   0  0  0  0  0  0  0  0  0  0  0  0
   56.1075   -4.3104  -10.3134 O   0  0  0  0  0  0  0  0  0  0  0  0
   56.2603   -4.4682   -8.9267 C   0  0  0  0  0  0  0  0  0  0  0  0
   57.2307   -5.6000   -8.8398 C   0  0  0  0  0  0  0  0  0  0  0  0
   58.0788   -5.3492   -7.7539 O   0  0  0  0  0  0  0  0  0  0  0  0
   58.0468   -5.4346  -10.1145 C   0  0  0  0  0  0  0  0  0  0  0  0
   59.3940   -5.2674   -9.8150 O   0  0  0  0  0  0  0  0  0  0  0  0
   58.7632   -6.0353   -7.6321 H   0  0  0  0  0  0  0  0  0  0  0  0
   59.5776   -4.2895   -9.8625 H   0  0  0  0  0  0  0  0  0  0  0  0
   58.8633   -4.4206  -12.6240 O   0  0  0  0  0  0  0  0  0  0  0  0
   57.5635   -4.1802  -12.2241 C   0  0  0  0  0  0  0  0  0  0  0  0
   59.3037   -4.9791  -11.9108 H   0  0  0  0  0  0  0  0  0  0  0  0
   50.6204   -4.3284   -6.7400 N   0  0  0  0  0  0  0  0  0  0  0  0
   49.7203   -4.5143   -7.2506 H   0  0  0  0  0  0  0  0  0  0  0  0
   50.7080   -4.6502   -5.3511 C   0  0  0  0  0  0  0  0  0  0  0  0
   50.9500   -6.1146   -5.0718 C   0  0  0  0  0  0  0  0  0  0  0  0
   51.3700   -6.2270   -3.6255 C   0  0  0  0  0  0  0  0  0  0  0  0
   50.3735   -5.6074   -2.6826 C   0  0  0  0  0  0  0  0  0  0  0  0
   49.8930   -4.2625   -3.0980 C   0  0  0  0  0  0  0  0  0  0  0  0
   49.4574   -4.2627   -4.5690 C   0  0  0  0  0  0  0  0  0  0  0  0
   48.9432   -2.9168   -4.9649 C   0  0  0  0  0  0  0  0  0  0  0  0
   47.7226   -2.6734   -4.3189 O   0  0  0  0  0  0  0  0  0  0  0  0
   47.0312   -3.1274   -4.8651 H   0  0  0  0  0  0  0  0  0  0  0  0
 19 20  1  0  0  0
 20 10  1  0  0  0
 10 11  1  0  0  0
 11 12  1  0  0  0
 12 13  1  0  0  0
 13 14  1  0  0  0
 13 15  1  0  0  0
 15 16  1  0  0  0
 12  1  1  0  0  0
  1  2  1  0  0  0
  2  3  2  0  0  0
  3  4  1  0  0  0
  4  5  2  0  0  0
  5 22  1  0  0  0
 22 24  1  0  0  0
 24 25  1  0  0  0
 25 26  1  0  0  0
 26 27  1  0  0  0
 27 28  1  0  0  0
 28 29  1  0  0  0
 29 30  1  0  0  0
 30 31  1  0  0  0
  5  6  1  0  0  0
  6  7  2  0  0  0
  7  8  1  0  0  0
  8  9  2  0  0  0
 15 10  1  0  0  0
  9  1  1  0  0  0
  9  4  1  0  0  0
 29 24  1  0  0  0
 19 21  1  0  0  0
 14 17  1  0  0  0
 16 18  1  0  0  0
 22 23  1  0  0  0
 31 32  1  0  0  0
M  END
> <minimizedAffinity>
-9.22454

> <CNNscore>
0.3874549866

> <CNNaffinity>
6.3613395691

> <CNN_VS>
2.4647326469

> <CNNaffinity_variance>
0.1826442480

$$$$
[H]OC([H])([H])[C@@]1([H])O[C@@]([H])(n2c([H])nc3c(N([H])[C@]4([H])C([H])([H])C([H])([H])C([H])([H])C([H])([H])[C@@]4([H])C([H])([H])O[H])nc([H])nc32)[C@]([H])(O[H])[C@]1([H])O[H]


 32 35  0  0  0  0  0  0  0  0999 V2000
   57.0141   -4.3107  -11.7924 N   0  0  0  0  0  0  0  0  0  0  0  0
   55.8548   -3.7547  -11.3991 C   0  0  0  0  0  0  0  0  0  0  0  0
   55.7584   -3.8548  -10.0778 N   0  0  0  0  0  0  0  0  0  0  0  0
   56.8614   -4.4834   -9.5759 C   0  0  0  0  0  0  0  0  0  0  0  0
   57.2362   -4.8235   -8.2926 C   0  0  0  0  0  0  0  0  0  0  0  0
   58.4251   -5.4539   -8.1671 N   0  0  0  0  0  0  0  0  0  0  0  0
   59.2044   -5.7372   -9.2268 C   0  0  0  0  0  0  0  0  0  0  0  0
   58.8154   -5.3939  -10.4749 N   0  0  0  0  0  0  0  0  0  0  0  0
   57.6353   -4.7584  -10.6853 C   0  0  0  0  0  0  0  0  0  0  0  0
   58.8872   -3.7874  -14.6827 C   0  0  0  0  0  0  0  0  0  0  0  0
   58.6106   -3.5418  -13.3385 O   0  0  0  0  0  0  0  0  0  0  0  0
   57.5555   -4.4409  -13.1157 C   0  0  0  0  0  0  0  0  0  0  0  0
   56.5997   -4.0875  -14.2072 C   0  0  0  0  0  0  0  0  0  0  0  0
   56.0054   -5.2752  -14.6518 O   0  0  0  0  0  0  0  0  0  0  0  0
   57.5253   -3.5903  -15.3093 C   0  0  0  0  0  0  0  0  0  0  0  0
   57.3649   -4.3495  -16.4628 O   0  0  0  0  0  0  0  0  0  0  0  0
   55.3737   -5.1401  -15.3844 H   0  0  0  0  0  0  0  0  0  0  0  0
   58.1090   -5.0118  -16.4743 H   0  0  0  0  0  0  0  0  0  0  0  0
   59.2828   -1.8111  -15.9778 O   0  0  0  0  0  0  0  0  0  0  0  0
   59.8964   -2.7972  -15.2306 C   0  0  0  0  0  0  0  0  0  0  0  0
   58.3470   -1.6972  -15.6231 H   0  0  0  0  0  0  0  0  0  0  0  0
   56.4145   -4.5251   -7.1743 N   0  0  0  0  0  0  0  0  0  0  0  0
   56.7153   -3.7222   -6.5656 H   0  0  0  0  0  0  0  0  0  0  0  0
   55.2255   -5.2416   -6.8379 C   0  0  0  0  0  0  0  0  0  0  0  0
   53.9535   -4.5870   -7.3225 C   0  0  0  0  0  0  0  0  0  0  0  0
   52.8546   -5.6172   -7.2125 C   0  0  0  0  0  0  0  0  0  0  0  0
   52.7293   -6.1851   -5.8240 C   0  0  0  0  0  0  0  0  0  0  0  0
   54.0238   -6.5739   -5.2033 C   0  0  0  0  0  0  0  0  0  0  0  0
   55.0589   -5.4493   -5.3363 C   0  0  0  0  0  0  0  0  0  0  0  0
   56.3430   -5.8366   -4.6780 C   0  0  0  0  0  0  0  0  0  0  0  0
   57.0122   -6.7773   -5.4739 O   0  0  0  0  0  0  0  0  0  0  0  0
   56.6056   -7.6549   -5.2569 H   0  0  0  0  0  0  0  0  0  0  0  0
 19 20  1  0  0  0
 20 10  1  0  0  0
 10 11  1  0  0  0
 11 12  1  0  0  0
 12 13  1  0  0  0
 13 14  1  0  0  0
 13 15  1  0  0  0
 15 16  1  0  0  0
 12  1  1  0  0  0
  1  2  1  0  0  0
  2  3  2  0  0  0
  3  4  1  0  0  0
  4  5  2  0  0  0
  5 22  1  0  0  0
 22 24  1  0  0  0
 24 25  1  0  0  0
 25 26  1  0  0  0
 26 27  1  0  0  0
 27 28  1  0  0  0
 28 29  1  0  0  0
 29 30  1  0  0  0
 30 31  1  0  0  0
  5  6  1  0  0  0
  6  7  2  0  0  0
  7  8  1  0  0  0
  8  9  2  0  0  0
 15 10  1  0  0  0
  9  1  1  0  0  0
  9  4  1  0  0  0
 29 24  1  0  0  0
 19 21  1  0  0  0
 14 17  1  0  0  0
 16 18  1  0  0  0
 22 23  1  0  0  0
 31 32  1  0  0  0
M  END
> <minimizedAffinity>
-7.83088

> <CNNscore>
0.3298207223

> <CNNaffinity>
5.6168947220

> <CNN_VS>
1.8525682688

> <CNNaffinity_variance>
0.0987785310

$$$$
[H]OC([H])([H])[C@@]1([H])O[C@@]([H])(n2c([H])nc3c(N([H])[C@]4([H])C([H])([H])C([H])([H])C([H])([H])C([H])([H])[C@@]4([H])C([H])([H])O[H])nc([H])nc32)[C@]([H])(O[H])[C@]1([H])O[H]


 32 35  0  0  0  0  0  0  0  0999 V2000
   60.6878   -6.1475   -9.6213 N   0  0  0  0  0  0  0  0  0  0  0  0
   60.4826   -6.4248   -8.3218 C   0  0  0  0  0  0  0  0  0  0  0  0
   59.2555   -6.0384   -7.9901 N   0  0  0  0  0  0  0  0  0  0  0  0
   58.6281   -5.4960   -9.0744 C   0  0  0  0  0  0  0  0  0  0  0  0
   57.3700   -4.9579   -9.2496 C   0  0  0  0  0  0  0  0  0  0  0  0
   57.0839   -4.5053  -10.4906 N   0  0  0  0  0  0  0  0  0  0  0  0
   57.9687   -4.5717  -11.5022 C   0  0  0  0  0  0  0  0  0  0  0  0
   59.1957   -5.1034  -11.3057 N   0  0  0  0  0  0  0  0  0  0  0  0
   59.5603   -5.5799  -10.0889 C   0  0  0  0  0  0  0  0  0  0  0  0
   62.8579   -6.3872  -12.3360 C   0  0  0  0  0  0  0  0  0  0  0  0
   61.6586   -5.9754  -11.7563 O   0  0  0  0  0  0  0  0  0  0  0  0
   61.8537   -6.3801  -10.4261 C   0  0  0  0  0  0  0  0  0  0  0  0
   62.2149   -7.8208  -10.5810 C   0  0  0  0  0  0  0  0  0  0  0  0
   63.1831   -8.1216   -9.6148 O   0  0  0  0  0  0  0  0  0  0  0  0
   62.8944   -7.8468  -11.9434 C   0  0  0  0  0  0  0  0  0  0  0  0
   64.1943   -8.3269  -11.8329 O   0  0  0  0  0  0  0  0  0  0  0  0
   63.4939   -9.0467   -9.6549 H   0  0  0  0  0  0  0  0  0  0  0  0
   64.7927   -7.5306  -11.8229 H   0  0  0  0  0  0  0  0  0  0  0  0
   63.1342   -7.4032  -14.4879 O   0  0  0  0  0  0  0  0  0  0  0  0
   62.8309   -6.2203  -13.8429 C   0  0  0  0  0  0  0  0  0  0  0  0
   62.8529   -8.1601  -13.8857 H   0  0  0  0  0  0  0  0  0  0  0  0
   56.4363   -4.8874   -8.1828 N   0  0  0  0  0  0  0  0  0  0  0  0
   56.7903   -5.1395   -7.2254 H   0  0  0  0  0  0  0  0  0  0  0  0
   55.0700   -4.5005   -8.3363 C   0  0  0  0  0  0  0  0  0  0  0  0
   54.8654   -3.0133   -8.5021 C   0  0  0  0  0  0  0  0  0  0  0  0
   53.4551   -2.8125   -9.0036 C   0  0  0  0  0  0  0  0  0  0  0  0
   52.4255   -3.4495   -8.1090 C   0  0  0  0  0  0  0  0  0  0  0  0
   52.7549   -4.8379   -7.6896 C   0  0  0  0  0  0  0  0  0  0  0  0
   54.1935   -4.9285   -7.1640 C   0  0  0  0  0  0  0  0  0  0  0  0
   54.5012   -6.3191   -6.7123 C   0  0  0  0  0  0  0  0  0  0  0  0
   55.5967   -6.2956   -5.8372 O   0  0  0  0  0  0  0  0  0  0  0  0
   56.4034   -6.2757   -6.4128 H   0  0  0  0  0  0  0  0  0  0  0  0
 19 20  1  0  0  0
 20 10  1  0  0  0
 10 11  1  0  0  0
 11 12  1  0  0  0
 12 13  1  0  0  0
 13 14  1  0  0  0
 13 15  1  0  0  0
 15 16  1  0  0  0
 12  1  1  0  0  0
  1  2  1  0  0  0
  2  3  2  0  0  0
  3  4  1  0  0  0
  4  5  2  0  0  0
  5 22  1  0  0  0
 22 24  1  0  0  0
 24 25  1  0  0  0
 25 26  1  0  0  0
 26 27  1  0  0  0
 27 28  1  0  0  0
 28 29  1  0  0  0
 29 30  1  0  0  0
 30 31  1  0  0  0
  5  6  1  0  0  0
  6  7  2  0  0  0
  7  8  1  0  0  0
  8  9  2  0  0  0
 15 10  1  0  0  0
  9  1  1  0  0  0
  9  4  1  0  0  0
 29 24  1  0  0  0
 19 21  1  0  0  0
 14 17  1  0  0  0
 16 18  1  0  0  0
 22 23  1  0  0  0
 31 32  1  0  0  0
M  END
> <minimizedAffinity>
-6.75336

> <CNNscore>
0.3220445216

> <CNNaffinity>
4.7953438759

> <CNN_VS>
1.5443142653

> <CNNaffinity_variance>
0.2159204483

$$$$
[H]OC([H])([H])[C@@]1([H])O[C@@]([H])(n2c([H])nc3c(N([H])[C@]4([H])C([H])([H])C([H])([H])C([H])([H])C([H])([H])[C@@]4([H])C([H])([H])O[H])nc([H])nc32)[C@]([H])(O[H])[C@]1([H])O[H]


 32 35  0  0  0  0  0  0  0  0999 V2000
   56.6291   -4.1902  -10.4148 N   0  0  0  0  0  0  0  0  0  0  0  0
   57.4922   -4.8054   -9.5877 C   0  0  0  0  0  0  0  0  0  0  0  0
   56.8810   -5.0462   -8.4329 N   0  0  0  0  0  0  0  0  0  0  0  0
   55.5953   -4.5897   -8.4815 C   0  0  0  0  0  0  0  0  0  0  0  0
   54.5687   -4.5983   -7.5601 C   0  0  0  0  0  0  0  0  0  0  0  0
   53.4031   -4.0450   -7.9627 N   0  0  0  0  0  0  0  0  0  0  0  0
   53.2445   -3.5144   -9.1890 C   0  0  0  0  0  0  0  0  0  0  0  0
   54.2655   -3.5178  -10.0746 N   0  0  0  0  0  0  0  0  0  0  0  0
   55.4680   -4.0543   -9.7473 C   0  0  0  0  0  0  0  0  0  0  0  0
   56.4606   -3.8924  -13.8817 C   0  0  0  0  0  0  0  0  0  0  0  0
   56.0189   -4.4295  -12.6733 O   0  0  0  0  0  0  0  0  0  0  0  0
   56.8299   -3.7351  -11.7616 C   0  0  0  0  0  0  0  0  0  0  0  0
   58.2007   -3.9888  -12.2969 C   0  0  0  0  0  0  0  0  0  0  0  0
   58.9538   -2.8239  -12.1037 O   0  0  0  0  0  0  0  0  0  0  0  0
   57.9499   -4.1373  -13.7914 C   0  0  0  0  0  0  0  0  0  0  0  0
   58.6798   -3.1946  -14.5063 O   0  0  0  0  0  0  0  0  0  0  0  0
   59.8668   -2.8937  -12.4440 H   0  0  0  0  0  0  0  0  0  0  0  0
   58.0518   -2.4525  -14.7237 H   0  0  0  0  0  0  0  0  0  0  0  0
   56.8152   -5.2733  -15.8070 O   0  0  0  0  0  0  0  0  0  0  0  0
   55.8517   -4.6177  -15.0659 C   0  0  0  0  0  0  0  0  0  0  0  0
   57.5708   -5.5096  -15.1844 H   0  0  0  0  0  0  0  0  0  0  0  0
   54.7355   -5.1576   -6.2662 N   0  0  0  0  0  0  0  0  0  0  0  0
   55.7089   -5.1508   -5.8686 H   0  0  0  0  0  0  0  0  0  0  0  0
   53.6746   -5.7176   -5.4910 C   0  0  0  0  0  0  0  0  0  0  0  0
   52.3040   -5.1986   -5.8561 C   0  0  0  0  0  0  0  0  0  0  0  0
   51.2948   -6.1261   -5.2220 C   0  0  0  0  0  0  0  0  0  0  0  0
   51.4911   -6.2679   -3.7363 C   0  0  0  0  0  0  0  0  0  0  0  0
   52.9023   -6.4939   -3.3248 C   0  0  0  0  0  0  0  0  0  0  0  0
   53.8407   -5.4809   -3.9936 C   0  0  0  0  0  0  0  0  0  0  0  0
   55.2498   -5.6944   -3.5452 C   0  0  0  0  0  0  0  0  0  0  0  0
   55.8688   -4.4531   -3.3390 O   0  0  0  0  0  0  0  0  0  0  0  0
   56.1713   -4.1489   -4.2325 H   0  0  0  0  0  0  0  0  0  0  0  0
 19 20  1  0  0  0
 20 10  1  0  0  0
 10 11  1  0  0  0
 11 12  1  0  0  0
 12 13  1  0  0  0
 13 14  1  0  0  0
 13 15  1  0  0  0
 15 16  1  0  0  0
 12  1  1  0  0  0
  1  2  1  0  0  0
  2  3  2  0  0  0
  3  4  1  0  0  0
  4  5  2  0  0  0
  5 22  1  0  0  0
 22 24  1  0  0  0
 24 25  1  0  0  0
 25 26  1  0  0  0
 26 27  1  0  0  0
 27 28  1  0  0  0
 28 29  1  0  0  0
 29 30  1  0  0  0
 30 31  1  0  0  0
  5  6  1  0  0  0
  6  7  2  0  0  0
  7  8  1  0  0  0
  8  9  2  0  0  0
 15 10  1  0  0  0
  9  1  1  0  0  0
  9  4  1  0  0  0
 29 24  1  0  0  0
 19 21  1  0  0  0
 14 17  1  0  0  0
 16 18  1  0  0  0
 22 23  1  0  0  0
 31 32  1  0  0  0
M  END
> <minimizedAffinity>
-8.10801

> <CNNscore>
0.3069883883

> <CNNaffinity>
5.7806024551

> <CNN_VS>
1.7745778561

> <CNNaffinity_variance>
0.3468132019

$$$$
[H]OC([H])([H])[C@@]1([H])O[C@@]([H])(n2c([H])nc3c(N([H])[C@]4([H])C([H])([H])C([H])([H])C([H])([H])C([H])([H])[C@@]4([H])C([H])([H])O[H])nc([H])nc32)[C@]([H])(O[H])[C@]1([H])O[H]


 32 35  0  0  0  0  0  0  0  0999 V2000
   59.9635   -6.2781   -9.3150 N   0  0  0  0  0  0  0  0  0  0  0  0
   59.6862   -6.2232   -8.0005 C   0  0  0  0  0  0  0  0  0  0  0  0
   58.5919   -5.4909   -7.8239 N   0  0  0  0  0  0  0  0  0  0  0  0
   58.1273   -5.0482   -9.0289 C   0  0  0  0  0  0  0  0  0  0  0  0
   57.0444   -4.2692   -9.3801 C   0  0  0  0  0  0  0  0  0  0  0  0
   56.8891   -4.0267  -10.7007 N   0  0  0  0  0  0  0  0  0  0  0  0
   57.7367   -4.5129  -11.6258 C   0  0  0  0  0  0  0  0  0  0  0  0
   58.7909   -5.2740  -11.2568 N   0  0  0  0  0  0  0  0  0  0  0  0
   59.0165   -5.5631   -9.9505 C   0  0  0  0  0  0  0  0  0  0  0  0
   62.0168   -8.7516  -10.6575 C   0  0  0  0  0  0  0  0  0  0  0  0
   60.8227   -8.3318  -10.0728 O   0  0  0  0  0  0  0  0  0  0  0  0
   61.0404   -6.9474   -9.9885 C   0  0  0  0  0  0  0  0  0  0  0  0
   62.3503   -6.8735   -9.2751 C   0  0  0  0  0  0  0  0  0  0  0  0
   63.0688   -5.8008   -9.8176 O   0  0  0  0  0  0  0  0  0  0  0  0
   63.0372   -8.1606   -9.7110 C   0  0  0  0  0  0  0  0  0  0  0  0
   64.2414   -7.8815  -10.3473 O   0  0  0  0  0  0  0  0  0  0  0  0
   63.9537   -5.6884   -9.4197 H   0  0  0  0  0  0  0  0  0  0  0  0
   64.0654   -7.9330  -11.3264 H   0  0  0  0  0  0  0  0  0  0  0  0
   61.5934  -10.8347   -9.5528 O   0  0  0  0  0  0  0  0  0  0  0  0
   62.1118  -10.2643  -10.6987 C   0  0  0  0  0  0  0  0  0  0  0  0
   60.8898  -10.2105   -9.1925 H   0  0  0  0  0  0  0  0  0  0  0  0
   56.1501   -3.7559   -8.4047 N   0  0  0  0  0  0  0  0  0  0  0  0
   56.5777   -3.2423   -7.5929 H   0  0  0  0  0  0  0  0  0  0  0  0
   54.7299   -3.8963   -8.4648 C   0  0  0  0  0  0  0  0  0  0  0  0
   53.9877   -2.5906   -8.6246 C   0  0  0  0  0  0  0  0  0  0  0  0
   52.5726   -2.9311   -9.0277 C   0  0  0  0  0  0  0  0  0  0  0  0
   51.9042   -3.8705   -8.0599 C   0  0  0  0  0  0  0  0  0  0  0  0
   52.7424   -5.0310   -7.6564 C   0  0  0  0  0  0  0  0  0  0  0  0
   54.1451   -4.5769   -7.2318 C   0  0  0  0  0  0  0  0  0  0  0  0
   54.9659   -5.7462   -6.7944 C   0  0  0  0  0  0  0  0  0  0  0  0
   56.0026   -5.3047   -5.9598 O   0  0  0  0  0  0  0  0  0  0  0  0
   56.7230   -4.9915   -6.5643 H   0  0  0  0  0  0  0  0  0  0  0  0
 19 20  1  0  0  0
 20 10  1  0  0  0
 10 11  1  0  0  0
 11 12  1  0  0  0
 12 13  1  0  0  0
 13 14  1  0  0  0
 13 15  1  0  0  0
 15 16  1  0  0  0
 12  1  1  0  0  0
  1  2  1  0  0  0
  2  3  2  0  0  0
  3  4  1  0  0  0
  4  5  2  0  0  0
  5 22  1  0  0  0
 22 24  1  0  0  0
 24 25  1  0  0  0
 25 26  1  0  0  0
 26 27  1  0  0  0
 27 28  1  0  0  0
 28 29  1  0  0  0
 29 30  1  0  0  0
 30 31  1  0  0  0
  5  6  1  0  0  0
  6  7  2  0  0  0
  7  8  1  0  0  0
  8  9  2  0  0  0
 15 10  1  0  0  0
  9  1  1  0  0  0
  9  4  1  0  0  0
 29 24  1  0  0  0
 19 21  1  0  0  0
 14 17  1  0  0  0
 16 18  1  0  0  0
 22 23  1  0  0  0
 31 32  1  0  0  0
M  END
> <minimizedAffinity>
-6.14307

> <CNNscore>
0.2962006629

> <CNNaffinity>
4.8277783394

> <CNN_VS>
1.4299911261

> <CNNaffinity_variance>
0.2166941166

$$$$
[H]OC([H])([H])[C@@]1([H])O[C@@]([H])(n2c([H])nc3c(N([H])[C@]4([H])C([H])([H])C([H])([H])C([H])([H])C([H])([H])[C@@]4([H])C([H])([H])O[H])nc([H])nc32)[C@]([H])(O[H])[C@]1([H])O[H]


 32 35  0  0  0  0  0  0  0  0999 V2000
   56.7051   -4.2656  -11.8763 N   0  0  0  0  0  0  0  0  0  0  0  0
   55.5660   -3.6823  -11.4643 C   0  0  0  0  0  0  0  0  0  0  0  0
   55.5257   -3.7117  -10.1366 N   0  0  0  0  0  0  0  0  0  0  0  0
   56.6466   -4.3198   -9.6493 C   0  0  0  0  0  0  0  0  0  0  0  0
   57.0745   -4.5937   -8.3668 C   0  0  0  0  0  0  0  0  0  0  0  0
   58.2652   -5.2241   -8.2586 N   0  0  0  0  0  0  0  0  0  0  0  0
   58.9973   -5.5680   -9.3338 C   0  0  0  0  0  0  0  0  0  0  0  0
   58.5568   -5.2888  -10.5808 N   0  0  0  0  0  0  0  0  0  0  0  0
   57.3712   -4.6580  -10.7744 C   0  0  0  0  0  0  0  0  0  0  0  0
   58.0683   -3.7215  -15.0358 C   0  0  0  0  0  0  0  0  0  0  0  0
   57.7811   -3.3084  -13.7355 O   0  0  0  0  0  0  0  0  0  0  0  0
   57.1890   -4.4692  -13.2126 C   0  0  0  0  0  0  0  0  0  0  0  0
   56.1205   -4.7609  -14.2143 C   0  0  0  0  0  0  0  0  0  0  0  0
   56.0338   -6.1522  -14.3490 O   0  0  0  0  0  0  0  0  0  0  0  0
   56.7138   -4.2056  -15.5019 C   0  0  0  0  0  0  0  0  0  0  0  0
   56.8173   -5.2041  -16.4637 O   0  0  0  0  0  0  0  0  0  0  0  0
   55.3667   -6.4357  -15.0037 H   0  0  0  0  0  0  0  0  0  0  0  0
   57.7634   -5.5155  -16.4511 H   0  0  0  0  0  0  0  0  0  0  0  0
   59.7806   -2.0934  -15.4314 O   0  0  0  0  0  0  0  0  0  0  0  0
   58.5663   -2.5690  -15.8860 C   0  0  0  0  0  0  0  0  0  0  0  0
   60.2579   -2.8569  -14.9801 H   0  0  0  0  0  0  0  0  0  0  0  0
   56.3025   -4.2314   -7.2321 N   0  0  0  0  0  0  0  0  0  0  0  0
   56.1018   -3.2074   -7.1025 H   0  0  0  0  0  0  0  0  0  0  0  0
   55.7940   -5.1632   -6.2764 C   0  0  0  0  0  0  0  0  0  0  0  0
   56.6880   -6.3583   -6.0448 C   0  0  0  0  0  0  0  0  0  0  0  0
   56.2049   -7.0363   -4.7848 C   0  0  0  0  0  0  0  0  0  0  0  0
   54.7452   -7.3993   -4.8450 C   0  0  0  0  0  0  0  0  0  0  0  0
   53.8657   -6.3138   -5.3550 C   0  0  0  0  0  0  0  0  0  0  0  0
   54.4236   -5.7162   -6.6532 C   0  0  0  0  0  0  0  0  0  0  0  0
   53.5139   -4.6521   -7.1753 C   0  0  0  0  0  0  0  0  0  0  0  0
   53.4194   -4.7597   -8.5702 O   0  0  0  0  0  0  0  0  0  0  0  0
   54.2156   -4.2939   -8.9329 H   0  0  0  0  0  0  0  0  0  0  0  0
 19 20  1  0  0  0
 20 10  1  0  0  0
 10 11  1  0  0  0
 11 12  1  0  0  0
 12 13  1  0  0  0
 13 14  1  0  0  0
 13 15  1  0  0  0
 15 16  1  0  0  0
 12  1  1  0  0  0
  1  2  1  0  0  0
  2  3  2  0  0  0
  3  4  1  0  0  0
  4  5  2  0  0  0
  5 22  1  0  0  0
 22 24  1  0  0  0
 24 25  1  0  0  0
 25 26  1  0  0  0
 26 27  1  0  0  0
 27 28  1  0  0  0
 28 29  1  0  0  0
 29 30  1  0  0  0
 30 31  1  0  0  0
  5  6  1  0  0  0
  6  7  2  0  0  0
  7  8  1  0  0  0
  8  9  2  0  0  0
 15 10  1  0  0  0
  9  1  1  0  0  0
  9  4  1  0  0  0
 29 24  1  0  0  0
 19 21  1  0  0  0
 14 17  1  0  0  0
 16 18  1  0  0  0
 22 23  1  0  0  0
 31 32  1  0  0  0
M  END
> <minimizedAffinity>
-7.26987

> <CNNscore>
0.2888818681

> <CNNaffinity>
5.2938141823

> <CNN_VS>
1.5292869806

> <CNNaffinity_variance>
0.1388824433

$$$$
[H]OC([H])([H])[C@@]1([H])O[C@@]([H])(n2c([H])nc3c(N([H])[C@]4([H])C([H])([H])C([H])([H])C([H])([H])C([H])([H])[C@@]4([H])C([H])([H])O[H])nc([H])nc32)[C@]([H])(O[H])[C@]1([H])O[H]


 32 35  0  0  0  0  0  0  0  0999 V2000
   55.4782   -4.7743   -8.5727 N   0  0  0  0  0  0  0  0  0  0  0  0
   54.7924   -3.8068   -9.2062 C   0  0  0  0  0  0  0  0  0  0  0  0
   55.5009   -3.3941  -10.2516 N   0  0  0  0  0  0  0  0  0  0  0  0
   56.6739   -4.0887  -10.3237 C   0  0  0  0  0  0  0  0  0  0  0  0
   57.7336   -4.0377  -11.2054 C   0  0  0  0  0  0  0  0  0  0  0  0
   58.7513   -4.8935  -10.9629 N   0  0  0  0  0  0  0  0  0  0  0  0
   58.7397   -5.7489   -9.9243 C   0  0  0  0  0  0  0  0  0  0  0  0
   57.6897   -5.7802   -9.0738 N   0  0  0  0  0  0  0  0  0  0  0  0
   56.6287   -4.9528   -9.2483 C   0  0  0  0  0  0  0  0  0  0  0  0
   53.7526   -5.9710   -5.7930 C   0  0  0  0  0  0  0  0  0  0  0  0
   53.8196   -5.2211   -6.9664 O   0  0  0  0  0  0  0  0  0  0  0  0
   55.1215   -5.5200   -7.3988 C   0  0  0  0  0  0  0  0  0  0  0  0
   55.9403   -5.1947   -6.1930 C   0  0  0  0  0  0  0  0  0  0  0  0
   56.9755   -6.1349   -6.1170 O   0  0  0  0  0  0  0  0  0  0  0  0
   54.9731   -5.4752   -5.0510 C   0  0  0  0  0  0  0  0  0  0  0  0
   55.4929   -6.4395   -4.1950 O   0  0  0  0  0  0  0  0  0  0  0  0
   57.5553   -6.0087   -5.3411 H   0  0  0  0  0  0  0  0  0  0  0  0
   55.0642   -7.3033   -4.4444 H   0  0  0  0  0  0  0  0  0  0  0  0
   52.5582   -6.1460   -3.7237 O   0  0  0  0  0  0  0  0  0  0  0  0
   52.4802   -5.6799   -5.0213 C   0  0  0  0  0  0  0  0  0  0  0  0
   53.5289   -6.1399   -3.4550 H   0  0  0  0  0  0  0  0  0  0  0  0
   57.7465   -3.1353  -12.3010 N   0  0  0  0  0  0  0  0  0  0  0  0
   58.0977   -2.1628  -12.1102 H   0  0  0  0  0  0  0  0  0  0  0  0
   57.3171   -3.4700  -13.6215 C   0  0  0  0  0  0  0  0  0  0  0  0
   56.4152   -4.6797  -13.6883 C   0  0  0  0  0  0  0  0  0  0  0  0
   55.7752   -4.6810  -15.0563 C   0  0  0  0  0  0  0  0  0  0  0  0
   56.7874   -4.6424  -16.1698 C   0  0  0  0  0  0  0  0  0  0  0  0
   57.8681   -3.6386  -15.9793 C   0  0  0  0  0  0  0  0  0  0  0  0
   58.4760   -3.7428  -14.5745 C   0  0  0  0  0  0  0  0  0  0  0  0
   59.5842   -2.7547  -14.4069 C   0  0  0  0  0  0  0  0  0  0  0  0
   59.7236   -2.0035  -15.5828 O   0  0  0  0  0  0  0  0  0  0  0  0
   60.2736   -2.5565  -16.1945 H   0  0  0  0  0  0  0  0  0  0  0  0
 19 20  1  0  0  0
 20 10  1  0  0  0
 10 11  1  0  0  0
 11 12  1  0  0  0
 12 13  1  0  0  0
 13 14  1  0  0  0
 13 15  1  0  0  0
 15 16  1  0  0  0
 12  1  1  0  0  0
  1  2  1  0  0  0
  2  3  2  0  0  0
  3  4  1  0  0  0
  4  5  2  0  0  0
  5 22  1  0  0  0
 22 24  1  0  0  0
 24 25  1  0  0  0
 25 26  1  0  0  0
 26 27  1  0  0  0
 27 28  1  0  0  0
 28 29  1  0  0  0
 29 30  1  0  0  0
 30 31  1  0  0  0
  5  6  1  0  0  0
  6  7  2  0  0  0
  7  8  1  0  0  0
  8  9  2  0  0  0
 15 10  1  0  0  0
  9  1  1  0  0  0
  9  4  1  0  0  0
 29 24  1  0  0  0
 19 21  1  0  0  0
 14 17  1  0  0  0
 16 18  1  0  0  0
 22 23  1  0  0  0
 31 32  1  0  0  0
M  END
> <minimizedAffinity>
-6.35137

> <CNNscore>
0.2771238685

> <CNNaffinity>
5.1631541252

> <CNN_VS>
1.4308332205

> <CNNaffinity_variance>
0.1943214983

$$$$
[H]OC([H])([H])[C@@]1([H])O[C@@]([H])(n2c([H])nc3c(N([H])[C@]4([H])C([H])([H])C([H])([H])C([H])([H])C([H])([H])[C@@]4([H])C([H])([H])O[H])nc([H])nc32)[C@]([H])(O[H])[C@]1([H])O[H]


 32 35  0  0  0  0  0  0  0  0999 V2000
   57.5370   -3.9441  -12.0350 N   0  0  0  0  0  0  0  0  0  0  0  0
   56.4293   -3.1971  -11.8845 C   0  0  0  0  0  0  0  0  0  0  0  0
   56.0535   -3.2402  -10.6109 N   0  0  0  0  0  0  0  0  0  0  0  0
   56.9145   -4.0227   -9.8967 C   0  0  0  0  0  0  0  0  0  0  0  0
   56.9620   -4.3795   -8.5650 C   0  0  0  0  0  0  0  0  0  0  0  0
   57.9816   -5.1890   -8.2018 N   0  0  0  0  0  0  0  0  0  0  0  0
   58.9013   -5.6261   -9.0814 C   0  0  0  0  0  0  0  0  0  0  0  0
   58.8336   -5.2626  -10.3814 N   0  0  0  0  0  0  0  0  0  0  0  0
   57.8404   -4.4522  -10.8260 C   0  0  0  0  0  0  0  0  0  0  0  0
   60.0958   -3.9525  -14.3991 C   0  0  0  0  0  0  0  0  0  0  0  0
   59.6024   -3.6708  -13.1259 O   0  0  0  0  0  0  0  0  0  0  0  0
   58.3053   -4.1999  -13.2205 C   0  0  0  0  0  0  0  0  0  0  0  0
   57.7782   -3.5338  -14.4488 C   0  0  0  0  0  0  0  0  0  0  0  0
   56.9759   -4.4623  -15.1238 O   0  0  0  0  0  0  0  0  0  0  0  0
   59.0386   -3.3208  -15.2762 C   0  0  0  0  0  0  0  0  0  0  0  0
   58.9299   -3.9584  -16.5068 O   0  0  0  0  0  0  0  0  0  0  0  0
   56.6007   -4.1152  -15.9561 H   0  0  0  0  0  0  0  0  0  0  0  0
   59.4235   -4.8199  -16.4264 H   0  0  0  0  0  0  0  0  0  0  0  0
   61.4168   -2.3963  -15.6531 O   0  0  0  0  0  0  0  0  0  0  0  0
   61.4528   -3.3135  -14.6212 C   0  0  0  0  0  0  0  0  0  0  0  0
   60.4800   -2.0298  -15.7031 H   0  0  0  0  0  0  0  0  0  0  0  0
   55.9919   -3.9189   -7.6368 N   0  0  0  0  0  0  0  0  0  0  0  0
   56.1692   -2.9835   -7.1907 H   0  0  0  0  0  0  0  0  0  0  0  0
   54.8123   -4.6425   -7.2832 C   0  0  0  0  0  0  0  0  0  0  0  0
   55.0023   -6.1397   -7.2234 C   0  0  0  0  0  0  0  0  0  0  0  0
   53.8036   -6.7107   -6.5037 C   0  0  0  0  0  0  0  0  0  0  0  0
   52.4999   -6.3104   -7.1409 C   0  0  0  0  0  0  0  0  0  0  0  0
   52.4034   -4.8656   -7.4803 C   0  0  0  0  0  0  0  0  0  0  0  0
   53.6504   -4.3929   -8.2389 C   0  0  0  0  0  0  0  0  0  0  0  0
   53.5265   -2.9499   -8.6060 C   0  0  0  0  0  0  0  0  0  0  0  0
   53.2713   -2.8365   -9.9802 O   0  0  0  0  0  0  0  0  0  0  0  0
   54.1539   -2.9015  -10.4265 H   0  0  0  0  0  0  0  0  0  0  0  0
 19 20  1  0  0  0
 20 10  1  0  0  0
 10 11  1  0  0  0
 11 12  1  0  0  0
 12 13  1  0  0  0
 13 14  1  0  0  0
 13 15  1  0  0  0
 15 16  1  0  0  0
 12  1  1  0  0  0
  1  2  1  0  0  0
  2  3  2  0  0  0
  3  4  1  0  0  0
  4  5  2  0  0  0
  5 22  1  0  0  0
 22 24  1  0  0  0
 24 25  1  0  0  0
 25 26  1  0  0  0
 26 27  1  0  0  0
 27 28  1  0  0  0
 28 29  1  0  0  0
 29 30  1  0  0  0
 30 31  1  0  0  0
  5  6  1  0  0  0
  6  7  2  0  0  0
  7  8  1  0  0  0
  8  9  2  0  0  0
 15 10  1  0  0  0
  9  1  1  0  0  0
  9  4  1  0  0  0
 29 24  1  0  0  0
 19 21  1  0  0  0
 14 17  1  0  0  0
 16 18  1  0  0  0
 22 23  1  0  0  0
 31 32  1  0  0  0
M  END
> <minimizedAffinity>
-6.58504

> <CNNscore>
0.2770128548

> <CNNaffinity>
5.2345643044

> <CNN_VS>
1.4500416517

> <CNNaffinity_variance>
0.1213205010

$$$$
[H]N([H])C(=NC([H])([H])C([H])([H])C([H])([H])N([H])C(=O)C([H])(N([H])C(=O)C([H])([H])[H])C([H])([H])C([H])([H])C([H])([H])N=C(N([H])[H])N([H])[H])N([H])[H]


 32 31  0  0  0  0  0  0  0  0999 V2000
   54.4821   -3.8587   -8.4611 C   0  0  0  0  0  0  0  0  0  0  0  0
   54.2755   -5.0832   -7.7361 N   0  0  0  0  0  0  0  0  0  0  0  0
   54.9299   -5.6034   -6.6098 C   0  0  0  0  0  0  0  0  0  0  0  0
   55.9006   -5.0259   -6.0007 O   0  0  0  0  0  0  0  0  0  0  0  0
   54.5082   -6.9213   -6.0275 C   0  0  0  0  0  0  0  0  0  0  0  0
   53.4923   -5.7533   -8.1257 H   0  0  0  0  0  0  0  0  0  0  0  0
   52.2610   -2.9518   -7.8713 N   0  0  0  0  0  0  0  0  0  0  0  0
   53.2289   -3.2520   -8.8694 C   0  0  0  0  0  0  0  0  0  0  0  0
   52.9462   -2.9514  -10.0865 O   0  0  0  0  0  0  0  0  0  0  0  0
   52.5276   -3.1392   -6.8375 H   0  0  0  0  0  0  0  0  0  0  0  0
   50.9648   -2.3943   -8.0681 C   0  0  0  0  0  0  0  0  0  0  0  0
   50.1118   -2.4471   -6.8299 C   0  0  0  0  0  0  0  0  0  0  0  0
   50.3232   -3.7820   -6.0802 C   0  0  0  0  0  0  0  0  0  0  0  0
   50.1623   -4.8940   -6.9562 N   0  0  0  0  0  0  0  0  0  0  0  0
   50.5789   -6.0971   -6.5994 C   0  0  0  0  0  0  0  0  0  0  0  0
   50.4062   -7.1920   -7.4823 N   0  0  0  0  0  0  0  0  0  0  0  0
   51.1334   -6.2517   -5.3030 N   0  0  0  0  0  0  0  0  0  0  0  0
   50.6536   -7.1269   -8.4972 H   0  0  0  0  0  0  0  0  0  0  0  0
   50.0559   -8.1052   -7.1336 H   0  0  0  0  0  0  0  0  0  0  0  0
   50.5808   -5.9856   -4.4370 H   0  0  0  0  0  0  0  0  0  0  0  0
   52.0745   -6.6134   -5.1922 H   0  0  0  0  0  0  0  0  0  0  0  0
   55.7326   -3.6373   -9.1639 C   0  0  0  0  0  0  0  0  0  0  0  0
   56.4769   -4.6166   -9.9529 C   0  0  0  0  0  0  0  0  0  0  0  0
   56.9935   -3.7546  -11.1755 C   0  0  0  0  0  0  0  0  0  0  0  0
   56.3417   -4.1776  -12.4011 N   0  0  0  0  0  0  0  0  0  0  0  0
   56.8569   -4.0023  -13.5196 C   0  0  0  0  0  0  0  0  0  0  0  0
   58.1456   -3.3712  -13.7783 N   0  0  0  0  0  0  0  0  0  0  0  0
   56.1929   -4.3411  -14.7375 N   0  0  0  0  0  0  0  0  0  0  0  0
   58.1474   -2.3905  -14.0694 H   0  0  0  0  0  0  0  0  0  0  0  0
   58.9773   -3.9411  -13.6704 H   0  0  0  0  0  0  0  0  0  0  0  0
   55.8707   -5.2936  -14.9034 H   0  0  0  0  0  0  0  0  0  0  0  0
   56.0428   -3.6172  -15.4886 H   0  0  0  0  0  0  0  0  0  0  0  0
  7  8  1  0  0  0
  8  9  2  0  0  0
  8  1  1  0  0  0
  1 22  1  0  0  0
 22 23  1  0  0  0
 23 24  1  0  0  0
 24 25  1  0  0  0
 25 26  2  0  0  0
 26 27  1  0  0  0
 26 28  1  0  0  0
  1  2  1  0  0  0
  2  3  1  0  0  0
  3  4  2  0  0  0
  3  5  1  0  0  0
  7 11  1  0  0  0
 11 12  1  0  0  0
 12 13  1  0  0  0
 13 14  1  0  0  0
 14 15  2  0  0  0
 15 16  1  0  0  0
 15 17  1  0  0  0
  7 10  1  0  0  0
 27 29  1  0  0  0
 27 30  1  0  0  0
 28 31  1  0  0  0
 28 32  1  0  0  0
  2  6  1  0  0  0
 16 18  1  0  0  0
 16 19  1  0  0  0
 17 20  1  0  0  0
 17 21  1  0  0  0
M  END
> <minimizedAffinity>
-6.65419

> <CNNscore>
0.6792314649

> <CNNaffinity>
5.8761048317

> <CNN_VS>
3.9912352562

> <CNNaffinity_variance>
0.2438102216

$$$$
[H]N([H])C(=NC([H])([H])C([H])([H])C([H])([H])N([H])C(=O)C([H])(N([H])C(=O)C([H])([H])[H])C([H])([H])C([H])([H])C([H])([H])N=C(N([H])[H])N([H])[H])N([H])[H]


 32 31  0  0  0  0  0  0  0  0999 V2000
   55.8602   -3.9879   -9.3490 C   0  0  0  0  0  0  0  0  0  0  0  0
   56.0444   -4.4105  -10.7111 N   0  0  0  0  0  0  0  0  0  0  0  0
   56.8598   -3.8940  -11.7289 C   0  0  0  0  0  0  0  0  0  0  0  0
   57.6292   -2.8753  -11.5987 O   0  0  0  0  0  0  0  0  0  0  0  0
   56.8802   -4.5368  -13.0854 C   0  0  0  0  0  0  0  0  0  0  0  0
   55.4363   -5.2681  -11.0412 H   0  0  0  0  0  0  0  0  0  0  0  0
   56.0991   -5.2579   -7.2434 N   0  0  0  0  0  0  0  0  0  0  0  0
   56.6911   -4.7427   -8.4297 C   0  0  0  0  0  0  0  0  0  0  0  0
   57.9356   -4.9905   -8.6336 O   0  0  0  0  0  0  0  0  0  0  0  0
   55.0340   -5.1104   -7.1061 H   0  0  0  0  0  0  0  0  0  0  0  0
   56.7459   -5.9865   -6.2040 C   0  0  0  0  0  0  0  0  0  0  0  0
   55.7776   -6.7047   -5.3039 C   0  0  0  0  0  0  0  0  0  0  0  0
   54.4424   -5.9316   -5.2142 C   0  0  0  0  0  0  0  0  0  0  0  0
   53.5634   -6.3002   -6.2730 N   0  0  0  0  0  0  0  0  0  0  0  0
   52.2617   -6.0917   -6.1700 C   0  0  0  0  0  0  0  0  0  0  0  0
   51.4035   -6.4609   -7.2355 N   0  0  0  0  0  0  0  0  0  0  0  0
   51.7824   -5.4415   -5.0039 N   0  0  0  0  0  0  0  0  0  0  0  0
   51.4762   -7.3936   -7.7049 H   0  0  0  0  0  0  0  0  0  0  0  0
   50.6529   -5.8205   -7.5590 H   0  0  0  0  0  0  0  0  0  0  0  0
   52.1433   -4.4832   -4.7252 H   0  0  0  0  0  0  0  0  0  0  0  0
   51.0904   -5.8947   -4.4170 H   0  0  0  0  0  0  0  0  0  0  0  0
   54.6163   -3.3545   -8.9510 C   0  0  0  0  0  0  0  0  0  0  0  0
   53.2699   -3.9030   -9.0989 C   0  0  0  0  0  0  0  0  0  0  0  0
   52.3568   -2.7262   -8.5642 C   0  0  0  0  0  0  0  0  0  0  0  0
   51.4695   -3.2104   -7.5229 N   0  0  0  0  0  0  0  0  0  0  0  0
   50.4538   -2.5829   -7.1738 C   0  0  0  0  0  0  0  0  0  0  0  0
   50.0014   -1.3119   -7.7268 N   0  0  0  0  0  0  0  0  0  0  0  0
   49.6160   -3.0067   -6.0980 N   0  0  0  0  0  0  0  0  0  0  0  0
   50.2169   -0.4596   -7.2038 H   0  0  0  0  0  0  0  0  0  0  0  0
   49.4819   -1.3372   -8.5972 H   0  0  0  0  0  0  0  0  0  0  0  0
   49.1863   -3.9307   -6.1099 H   0  0  0  0  0  0  0  0  0  0  0  0
   49.4155   -2.3649   -5.2865 H   0  0  0  0  0  0  0  0  0  0  0  0
  7  8  1  0  0  0
  8  9  2  0  0  0
  8  1  1  0  0  0
  1 22  1  0  0  0
 22 23  1  0  0  0
 23 24  1  0  0  0
 24 25  1  0  0  0
 25 26  2  0  0  0
 26 27  1  0  0  0
 26 28  1  0  0  0
  1  2  1  0  0  0
  2  3  1  0  0  0
  3  4  2  0  0  0
  3  5  1  0  0  0
  7 11  1  0  0  0
 11 12  1  0  0  0
 12 13  1  0  0  0
 13 14  1  0  0  0
 14 15  2  0  0  0
 15 16  1  0  0  0
 15 17  1  0  0  0
  7 10  1  0  0  0
 27 29  1  0  0  0
 27 30  1  0  0  0
 28 31  1  0  0  0
 28 32  1  0  0  0
  2  6  1  0  0  0
 16 18  1  0  0  0
 16 19  1  0  0  0
 17 20  1  0  0  0
 17 21  1  0  0  0
M  END
> <minimizedAffinity>
-6.28208

> <CNNscore>
0.5897902250

> <CNNaffinity>
6.0737771988

> <CNN_VS>
3.5822544098

> <CNNaffinity_variance>
0.0644263998

$$$$
[H]N([H])C(=NC([H])([H])C([H])([H])C([H])([H])N([H])C(=O)C([H])(N([H])C(=O)C([H])([H])[H])C([H])([H])C([H])([H])C([H])([H])N=C(N([H])[H])N([H])[H])N([H])[H]


 32 31  0  0  0  0  0  0  0  0999 V2000
   56.1081   -5.8554   -6.0325 C   0  0  0  0  0  0  0  0  0  0  0  0
   57.1037   -6.7095   -5.4434 N   0  0  0  0  0  0  0  0  0  0  0  0
   57.5655   -6.8033   -4.1222 C   0  0  0  0  0  0  0  0  0  0  0  0
   57.1438   -6.0789   -3.1506 O   0  0  0  0  0  0  0  0  0  0  0  0
   58.6228   -7.8044   -3.7566 C   0  0  0  0  0  0  0  0  0  0  0  0
   57.6215   -7.3988   -6.1296 H   0  0  0  0  0  0  0  0  0  0  0  0
   53.7235   -5.9104   -6.6763 N   0  0  0  0  0  0  0  0  0  0  0  0
   54.7648   -6.3599   -5.8177 C   0  0  0  0  0  0  0  0  0  0  0  0
   54.4605   -7.2087   -4.9019 O   0  0  0  0  0  0  0  0  0  0  0  0
   53.9927   -5.2503   -7.4928 H   0  0  0  0  0  0  0  0  0  0  0  0
   52.3427   -6.2541   -6.6089 C   0  0  0  0  0  0  0  0  0  0  0  0
   51.4932   -5.1513   -6.0380 C   0  0  0  0  0  0  0  0  0  0  0  0
   51.2109   -4.0726   -7.1082 C   0  0  0  0  0  0  0  0  0  0  0  0
   52.3934   -3.7462   -7.8327 N   0  0  0  0  0  0  0  0  0  0  0  0
   52.4595   -2.6356   -8.5472 C   0  0  0  0  0  0  0  0  0  0  0  0
   53.6458   -2.3255   -9.2576 N   0  0  0  0  0  0  0  0  0  0  0  0
   51.3436   -1.7602   -8.5207 N   0  0  0  0  0  0  0  0  0  0  0  0
   54.1388   -3.0371   -9.8458 H   0  0  0  0  0  0  0  0  0  0  0  0
   54.0417   -1.3658   -9.2368 H   0  0  0  0  0  0  0  0  0  0  0  0
   50.9795   -1.3667   -7.6049 H   0  0  0  0  0  0  0  0  0  0  0  0
   50.8750   -1.5073   -9.3840 H   0  0  0  0  0  0  0  0  0  0  0  0
   56.4607   -4.9988   -7.1500 C   0  0  0  0  0  0  0  0  0  0  0  0
   57.4546   -5.2767   -8.1846 C   0  0  0  0  0  0  0  0  0  0  0  0
   56.7474   -4.7423   -9.4956 C   0  0  0  0  0  0  0  0  0  0  0  0
   57.7361   -4.4428  -10.5149 N   0  0  0  0  0  0  0  0  0  0  0  0
   57.4405   -3.8590  -11.5728 C   0  0  0  0  0  0  0  0  0  0  0  0
   56.1108   -3.3964  -11.9517 N   0  0  0  0  0  0  0  0  0  0  0  0
   58.3859   -3.6285  -12.6177 N   0  0  0  0  0  0  0  0  0  0  0  0
   55.5668   -3.9793  -12.5926 H   0  0  0  0  0  0  0  0  0  0  0  0
   55.7961   -2.5106  -11.5716 H   0  0  0  0  0  0  0  0  0  0  0  0
   59.2451   -3.1123  -12.4336 H   0  0  0  0  0  0  0  0  0  0  0  0
   58.2011   -3.9722  -13.5967 H   0  0  0  0  0  0  0  0  0  0  0  0
  7  8  1  0  0  0
  8  9  2  0  0  0
  8  1  1  0  0  0
  1 22  1  0  0  0
 22 23  1  0  0  0
 23 24  1  0  0  0
 24 25  1  0  0  0
 25 26  2  0  0  0
 26 27  1  0  0  0
 26 28  1  0  0  0
  1  2  1  0  0  0
  2  3  1  0  0  0
  3  4  2  0  0  0
  3  5  1  0  0  0
  7 11  1  0  0  0
 11 12  1  0  0  0
 12 13  1  0  0  0
 13 14  1  0  0  0
 14 15  2  0  0  0
 15 16  1  0  0  0
 15 17  1  0  0  0
  7 10  1  0  0  0
 27 29  1  0  0  0
 27 30  1  0  0  0
 28 31  1  0  0  0
 28 32  1  0  0  0
  2  6  1  0  0  0
 16 18  1  0  0  0
 16 19  1  0  0  0
 17 20  1  0  0  0
 17 21  1  0  0  0
M  END
> <minimizedAffinity>
-6.22570

> <CNNscore>
0.5468602180

> <CNNaffinity>
5.7965350151

> <CNN_VS>
3.1698944569

> <CNNaffinity_variance>
0.3216908276

$$$$
[H]N([H])C(=NC([H])([H])C([H])([H])C([H])([H])N([H])C(=O)C([H])(N([H])C(=O)C([H])([H])[H])C([H])([H])C([H])([H])C([H])([H])N=C(N([H])[H])N([H])[H])N([H])[H]


 32 31  0  0  0  0  0  0  0  0999 V2000
   52.9178   -4.5835   -7.1610 C   0  0  0  0  0  0  0  0  0  0  0  0
   51.7659   -3.7642   -7.4249 N   0  0  0  0  0  0  0  0  0  0  0  0
   50.6513   -3.4654   -6.6275 C   0  0  0  0  0  0  0  0  0  0  0  0
   50.4628   -3.9172   -5.4413 O   0  0  0  0  0  0  0  0  0  0  0  0
   49.5721   -2.5566   -7.1405 C   0  0  0  0  0  0  0  0  0  0  0  0
   51.7164   -3.3011   -8.4236 H   0  0  0  0  0  0  0  0  0  0  0  0
   55.3776   -4.4537   -7.3506 N   0  0  0  0  0  0  0  0  0  0  0  0
   54.0960   -4.1040   -7.8590 C   0  0  0  0  0  0  0  0  0  0  0  0
   54.0502   -3.3912   -8.9274 O   0  0  0  0  0  0  0  0  0  0  0  0
   55.4166   -5.1137   -6.4916 H   0  0  0  0  0  0  0  0  0  0  0  0
   56.6458   -4.0561   -7.8637 C   0  0  0  0  0  0  0  0  0  0  0  0
   57.5484   -5.2229   -8.1594 C   0  0  0  0  0  0  0  0  0  0  0  0
   57.8920   -5.2768   -9.6653 C   0  0  0  0  0  0  0  0  0  0  0  0
   56.9141   -4.5890  -10.4400 N   0  0  0  0  0  0  0  0  0  0  0  0
   57.2399   -4.0336  -11.5950 C   0  0  0  0  0  0  0  0  0  0  0  0
   56.2525   -3.3574  -12.3538 N   0  0  0  0  0  0  0  0  0  0  0  0
   58.5707   -4.1950  -12.0588 N   0  0  0  0  0  0  0  0  0  0  0  0
   55.5950   -2.6702  -11.9167 H   0  0  0  0  0  0  0  0  0  0  0  0
   56.1771   -3.5050  -13.3789 H   0  0  0  0  0  0  0  0  0  0  0  0
   58.9879   -5.1610  -12.1967 H   0  0  0  0  0  0  0  0  0  0  0  0
   59.1426   -3.3810  -12.2565 H   0  0  0  0  0  0  0  0  0  0  0  0
   52.7435   -5.9692   -6.7656 C   0  0  0  0  0  0  0  0  0  0  0  0
   52.4346   -6.4634   -5.4255 C   0  0  0  0  0  0  0  0  0  0  0  0
   53.6609   -5.9400   -4.5730 C   0  0  0  0  0  0  0  0  0  0  0  0
   54.8769   -6.6288   -4.9642 N   0  0  0  0  0  0  0  0  0  0  0  0
   55.9913   -6.3149   -4.5094 C   0  0  0  0  0  0  0  0  0  0  0  0
   56.2540   -5.2500   -3.5488 N   0  0  0  0  0  0  0  0  0  0  0  0
   57.2041   -6.9305   -4.9441 N   0  0  0  0  0  0  0  0  0  0  0  0
   56.5962   -4.3557   -3.9086 H   0  0  0  0  0  0  0  0  0  0  0  0
   56.0977   -5.4538   -2.5678 H   0  0  0  0  0  0  0  0  0  0  0  0
   57.3268   -7.9396   -4.8724 H   0  0  0  0  0  0  0  0  0  0  0  0
   57.9954   -6.3497   -5.3279 H   0  0  0  0  0  0  0  0  0  0  0  0
  7  8  1  0  0  0
  8  9  2  0  0  0
  8  1  1  0  0  0
  1 22  1  0  0  0
 22 23  1  0  0  0
 23 24  1  0  0  0
 24 25  1  0  0  0
 25 26  2  0  0  0
 26 27  1  0  0  0
 26 28  1  0  0  0
  1  2  1  0  0  0
  2  3  1  0  0  0
  3  4  2  0  0  0
  3  5  1  0  0  0
  7 11  1  0  0  0
 11 12  1  0  0  0
 12 13  1  0  0  0
 13 14  1  0  0  0
 14 15  2  0  0  0
 15 16  1  0  0  0
 15 17  1  0  0  0
  7 10  1  0  0  0
 27 29  1  0  0  0
 27 30  1  0  0  0
 28 31  1  0  0  0
 28 32  1  0  0  0
  2  6  1  0  0  0
 16 18  1  0  0  0
 16 19  1  0  0  0
 17 20  1  0  0  0
 17 21  1  0  0  0
M  END
> <minimizedAffinity>
-6.21767

> <CNNscore>
0.5061366558

> <CNNaffinity>
5.8804755211

> <CNN_VS>
2.9763243198

> <CNNaffinity_variance>
0.0359609425

$$$$
[H]N([H])C(=NC([H])([H])C([H])([H])C([H])([H])N([H])C(=O)C([H])(N([H])C(=O)C([H])([H])[H])C([H])([H])C([H])([H])C([H])([H])N=C(N([H])[H])N([H])[H])N([H])[H]


 32 31  0  0  0  0  0  0  0  0999 V2000
   56.2891   -4.4302   -9.9889 C   0  0  0  0  0  0  0  0  0  0  0  0
   56.0456   -3.9941  -11.3373 N   0  0  0  0  0  0  0  0  0  0  0  0
   56.7656   -4.2233  -12.5190 C   0  0  0  0  0  0  0  0  0  0  0  0
   57.8480   -4.9089  -12.5905 O   0  0  0  0  0  0  0  0  0  0  0  0
   56.2847   -3.6566  -13.8234 C   0  0  0  0  0  0  0  0  0  0  0  0
   55.1637   -3.3512  -11.4892 H   0  0  0  0  0  0  0  0  0  0  0  0
   55.0259   -4.9266   -7.9245 N   0  0  0  0  0  0  0  0  0  0  0  0
   55.1559   -4.1688   -9.1212 C   0  0  0  0  0  0  0  0  0  0  0  0
   54.2651   -3.2745   -9.3627 O   0  0  0  0  0  0  0  0  0  0  0  0
   55.8147   -5.6306   -7.6851 H   0  0  0  0  0  0  0  0  0  0  0  0
   53.9751   -4.8494   -6.9657 C   0  0  0  0  0  0  0  0  0  0  0  0
   52.9187   -5.9009   -7.1706 C   0  0  0  0  0  0  0  0  0  0  0  0
   51.5217   -5.3455   -6.8119 C   0  0  0  0  0  0  0  0  0  0  0  0
   51.3062   -4.0712   -7.4114 N   0  0  0  0  0  0  0  0  0  0  0  0
   50.4735   -3.2023   -6.8635 C   0  0  0  0  0  0  0  0  0  0  0  0
   50.2755   -1.9379   -7.4719 N   0  0  0  0  0  0  0  0  0  0  0  0
   49.8526   -3.5574   -5.6386 N   0  0  0  0  0  0  0  0  0  0  0  0
   50.1057   -1.8407   -8.5001 H   0  0  0  0  0  0  0  0  0  0  0  0
   50.2624   -1.0703   -6.9014 H   0  0  0  0  0  0  0  0  0  0  0  0
   50.4313   -3.8170   -4.7877 H   0  0  0  0  0  0  0  0  0  0  0  0
   48.8410   -3.5742   -5.5674 H   0  0  0  0  0  0  0  0  0  0  0  0
   57.6512   -4.5360   -9.4986 C   0  0  0  0  0  0  0  0  0  0  0  0
   58.2070   -5.6181   -8.6889 C   0  0  0  0  0  0  0  0  0  0  0  0
   59.5327   -5.9882   -9.4699 C   0  0  0  0  0  0  0  0  0  0  0  0
   60.6560   -6.0525   -8.5533 N   0  0  0  0  0  0  0  0  0  0  0  0
   61.2756   -7.1095   -8.3385 C   0  0  0  0  0  0  0  0  0  0  0  0
   60.9923   -8.4052   -8.9441 N   0  0  0  0  0  0  0  0  0  0  0  0
   62.3307   -7.2053   -7.3812 N   0  0  0  0  0  0  0  0  0  0  0  0
   60.4540   -9.0811   -8.3964 H   0  0  0  0  0  0  0  0  0  0  0  0
   61.3561   -8.5779   -9.8747 H   0  0  0  0  0  0  0  0  0  0  0  0
   63.1482   -6.6007   -7.4499 H   0  0  0  0  0  0  0  0  0  0  0  0
   62.2882   -7.9135   -6.6019 H   0  0  0  0  0  0  0  0  0  0  0  0
  7  8  1  0  0  0
  8  9  2  0  0  0
  8  1  1  0  0  0
  1 22  1  0  0  0
 22 23  1  0  0  0
 23 24  1  0  0  0
 24 25  1  0  0  0
 25 26  2  0  0  0
 26 27  1  0  0  0
 26 28  1  0  0  0
  1  2  1  0  0  0
  2  3  1  0  0  0
  3  4  2  0  0  0
  3  5  1  0  0  0
  7 11  1  0  0  0
 11 12  1  0  0  0
 12 13  1  0  0  0
 13 14  1  0  0  0
 14 15  2  0  0  0
 15 16  1  0  0  0
 15 17  1  0  0  0
  7 10  1  0  0  0
 27 29  1  0  0  0
 27 30  1  0  0  0
 28 31  1  0  0  0
 28 32  1  0  0  0
  2  6  1  0  0  0
 16 18  1  0  0  0
 16 19  1  0  0  0
 17 20  1  0  0  0
 17 21  1  0  0  0
M  END
> <minimizedAffinity>
-6.47348

> <CNNscore>
0.4940523803

> <CNNaffinity>
5.7075872421

> <CNN_VS>
2.8198471069

> <CNNaffinity_variance>
0.0600288287

$$$$
[H]N([H])C(=NC([H])([H])C([H])([H])C([H])([H])N([H])C(=O)C([H])(N([H])C(=O)C([H])([H])[H])C([H])([H])C([H])([H])C([H])([H])N=C(N([H])[H])N([H])[H])N([H])[H]


 32 31  0  0  0  0  0  0  0  0999 V2000
   54.3169   -5.9352   -5.4854 C   0  0  0  0  0  0  0  0  0  0  0  0
   54.4065   -5.9739   -4.0507 N   0  0  0  0  0  0  0  0  0  0  0  0
   55.1893   -5.2240   -3.1606 C   0  0  0  0  0  0  0  0  0  0  0  0
   56.0229   -4.3143   -3.5131 O   0  0  0  0  0  0  0  0  0  0  0  0
   55.0862   -5.4528   -1.6805 C   0  0  0  0  0  0  0  0  0  0  0  0
   53.7818   -6.7272   -3.5442 H   0  0  0  0  0  0  0  0  0  0  0  0
   51.9148   -5.6018   -5.0134 N   0  0  0  0  0  0  0  0  0  0  0  0
   52.9399   -5.9311   -5.9430 C   0  0  0  0  0  0  0  0  0  0  0  0
   52.5901   -6.1921   -7.1518 O   0  0  0  0  0  0  0  0  0  0  0  0
   52.2151   -5.3122   -4.0130 H   0  0  0  0  0  0  0  0  0  0  0  0
   50.5106   -5.5777   -5.2522 C   0  0  0  0  0  0  0  0  0  0  0  0
   49.8485   -4.3360   -4.7198 C   0  0  0  0  0  0  0  0  0  0  0  0
   49.7148   -3.2713   -5.8321 C   0  0  0  0  0  0  0  0  0  0  0  0
   50.7399   -3.4191   -6.8103 N   0  0  0  0  0  0  0  0  0  0  0  0
   50.9144   -2.5010   -7.7458 C   0  0  0  0  0  0  0  0  0  0  0  0
   51.9423   -2.6632   -8.7077 N   0  0  0  0  0  0  0  0  0  0  0  0
   50.0909   -1.3467   -7.7067 N   0  0  0  0  0  0  0  0  0  0  0  0
   52.0910   -3.5698   -9.2091 H   0  0  0  0  0  0  0  0  0  0  0  0
   52.5595   -1.8685   -8.9644 H   0  0  0  0  0  0  0  0  0  0  0  0
   50.0597   -0.7266   -6.8461 H   0  0  0  0  0  0  0  0  0  0  0  0
   49.5135   -1.1066   -8.5053 H   0  0  0  0  0  0  0  0  0  0  0  0
   55.4155   -6.4351   -6.2917 C   0  0  0  0  0  0  0  0  0  0  0  0
   56.6073   -5.6947   -6.7000 C   0  0  0  0  0  0  0  0  0  0  0  0
   56.0241   -4.6389   -7.7245 C   0  0  0  0  0  0  0  0  0  0  0  0
   56.7593   -4.6910   -8.9747 N   0  0  0  0  0  0  0  0  0  0  0  0
   56.2895   -4.2483  -10.0380 C   0  0  0  0  0  0  0  0  0  0  0  0
   54.9798   -3.6290  -10.2021 N   0  0  0  0  0  0  0  0  0  0  0  0
   56.9677   -4.3640  -11.2892 N   0  0  0  0  0  0  0  0  0  0  0  0
   54.2222   -4.2056  -10.5763 H   0  0  0  0  0  0  0  0  0  0  0  0
   54.8882   -2.6511   -9.9502 H   0  0  0  0  0  0  0  0  0  0  0  0
   57.9057   -3.9832  -11.4065 H   0  0  0  0  0  0  0  0  0  0  0  0
   56.5023   -4.8276  -12.1133 H   0  0  0  0  0  0  0  0  0  0  0  0
  7  8  1  0  0  0
  8  9  2  0  0  0
  8  1  1  0  0  0
  1 22  1  0  0  0
 22 23  1  0  0  0
 23 24  1  0  0  0
 24 25  1  0  0  0
 25 26  2  0  0  0
 26 27  1  0  0  0
 26 28  1  0  0  0
  1  2  1  0  0  0
  2  3  1  0  0  0
  3  4  2  0  0  0
  3  5  1  0  0  0
  7 11  1  0  0  0
 11 12  1  0  0  0
 12 13  1  0  0  0
 13 14  1  0  0  0
 14 15  2  0  0  0
 15 16  1  0  0  0
 15 17  1  0  0  0
  7 10  1  0  0  0
 27 29  1  0  0  0
 27 30  1  0  0  0
 28 31  1  0  0  0
 28 32  1  0  0  0
  2  6  1  0  0  0
 16 18  1  0  0  0
 16 19  1  0  0  0
 17 20  1  0  0  0
 17 21  1  0  0  0
M  END
> <minimizedAffinity>
-6.35996

> <CNNscore>
0.4604579806

> <CNNaffinity>
5.9038043022

> <CNN_VS>
2.7184538841

> <CNNaffinity_variance>
0.0261117183

$$$$
[H]N([H])C(=NC([H])([H])C([H])([H])C([H])([H])N([H])C(=O)C([H])(N([H])C(=O)C([H])([H])[H])C([H])([H])C([H])([H])C([H])([H])N=C(N([H])[H])N([H])[H])N([H])[H]


 32 31  0  0  0  0  0  0  0  0999 V2000
   54.8847   -5.7395   -6.1631 C   0  0  0  0  0  0  0  0  0  0  0  0
   55.5761   -5.5027   -7.4015 N   0  0  0  0  0  0  0  0  0  0  0  0
   55.6510   -4.3553   -8.2047 C   0  0  0  0  0  0  0  0  0  0  0  0
   55.0615   -3.2454   -7.9452 O   0  0  0  0  0  0  0  0  0  0  0  0
   56.4651   -4.3630   -9.4661 C   0  0  0  0  0  0  0  0  0  0  0  0
   56.1281   -6.3586   -7.8222 H   0  0  0  0  0  0  0  0  0  0  0  0
   52.5607   -5.6649   -5.3282 N   0  0  0  0  0  0  0  0  0  0  0  0
   53.4711   -5.9925   -6.3708 C   0  0  0  0  0  0  0  0  0  0  0  0
   52.9870   -6.4824   -7.4559 O   0  0  0  0  0  0  0  0  0  0  0  0
   52.9602   -5.1859   -4.4417 H   0  0  0  0  0  0  0  0  0  0  0  0
   51.1507   -5.8681   -5.3203 C   0  0  0  0  0  0  0  0  0  0  0  0
   50.3939   -4.6925   -4.7645 C   0  0  0  0  0  0  0  0  0  0  0  0
   49.9948   -3.7184   -5.8960 C   0  0  0  0  0  0  0  0  0  0  0  0
   51.0253   -3.6181   -6.8746 N   0  0  0  0  0  0  0  0  0  0  0  0
   51.0418   -2.6127   -7.7334 C   0  0  0  0  0  0  0  0  0  0  0  0
   52.0775   -2.5274   -8.6968 N   0  0  0  0  0  0  0  0  0  0  0  0
   50.0401   -1.6160   -7.6101 N   0  0  0  0  0  0  0  0  0  0  0  0
   52.3706   -3.3548   -9.2668 H   0  0  0  0  0  0  0  0  0  0  0  0
   52.5545   -1.6244   -8.8850 H   0  0  0  0  0  0  0  0  0  0  0  0
   49.9117   -1.0795   -6.7035 H   0  0  0  0  0  0  0  0  0  0  0  0
   49.4270   -1.4116   -8.3919 H   0  0  0  0  0  0  0  0  0  0  0  0
   55.4171   -5.2025   -4.9242 C   0  0  0  0  0  0  0  0  0  0  0  0
   55.8954   -5.9671   -3.7744 C   0  0  0  0  0  0  0  0  0  0  0  0
   55.0714   -5.3419   -2.5766 C   0  0  0  0  0  0  0  0  0  0  0  0
   53.7231   -5.8784   -2.5587 N   0  0  0  0  0  0  0  0  0  0  0  0
   52.8827   -5.5292   -1.7106 C   0  0  0  0  0  0  0  0  0  0  0  0
   53.0990   -4.5644   -0.6390 N   0  0  0  0  0  0  0  0  0  0  0  0
   51.5790   -6.1062   -1.6322 N   0  0  0  0  0  0  0  0  0  0  0  0
   53.2995   -4.9265    0.2965 H   0  0  0  0  0  0  0  0  0  0  0  0
   53.0256   -3.5803   -0.8718 H   0  0  0  0  0  0  0  0  0  0  0  0
   50.9532   -6.0819   -2.4361 H   0  0  0  0  0  0  0  0  0  0  0  0
   51.2387   -6.5485   -0.7382 H   0  0  0  0  0  0  0  0  0  0  0  0
  7  8  1  0  0  0
  8  9  2  0  0  0
  8  1  1  0  0  0
  1 22  1  0  0  0
 22 23  1  0  0  0
 23 24  1  0  0  0
 24 25  1  0  0  0
 25 26  2  0  0  0
 26 27  1  0  0  0
 26 28  1  0  0  0
  1  2  1  0  0  0
  2  3  1  0  0  0
  3  4  2  0  0  0
  3  5  1  0  0  0
  7 11  1  0  0  0
 11 12  1  0  0  0
 12 13  1  0  0  0
 13 14  1  0  0  0
 14 15  2  0  0  0
 15 16  1  0  0  0
 15 17  1  0  0  0
  7 10  1  0  0  0
 27 29  1  0  0  0
 27 30  1  0  0  0
 28 31  1  0  0  0
 28 32  1  0  0  0
  2  6  1  0  0  0
 16 18  1  0  0  0
 16 19  1  0  0  0
 17 20  1  0  0  0
 17 21  1  0  0  0
M  END
> <minimizedAffinity>
-6.29302

> <CNNscore>
0.3994838595

> <CNNaffinity>
5.9940519333

> <CNN_VS>
2.3945269585

> <CNNaffinity_variance>
0.0898077935

$$$$
[H]N([H])C(=NC([H])([H])C([H])([H])C([H])([H])N([H])C(=O)C([H])(N([H])C(=O)C([H])([H])[H])C([H])([H])C([H])([H])C([H])([H])N=C(N([H])[H])N([H])[H])N([H])[H]


 32 31  0  0  0  0  0  0  0  0999 V2000
   54.7381   -3.4053   -8.5837 C   0  0  0  0  0  0  0  0  0  0  0  0
   55.5120   -3.2034   -9.7787 N   0  0  0  0  0  0  0  0  0  0  0  0
   56.5297   -3.9787  -10.3537 C   0  0  0  0  0  0  0  0  0  0  0  0
   56.9733   -5.0779   -9.8621 O   0  0  0  0  0  0  0  0  0  0  0  0
   57.1813   -3.5468  -11.6354 C   0  0  0  0  0  0  0  0  0  0  0  0
   55.3052   -2.2793  -10.3422 H   0  0  0  0  0  0  0  0  0  0  0  0
   55.4145   -5.4134   -7.3133 N   0  0  0  0  0  0  0  0  0  0  0  0
   55.5236   -4.0110   -7.5246 C   0  0  0  0  0  0  0  0  0  0  0  0
   56.3314   -3.3535   -6.7718 O   0  0  0  0  0  0  0  0  0  0  0  0
   54.7882   -5.9788   -7.9937 H   0  0  0  0  0  0  0  0  0  0  0  0
   56.0669   -6.1868   -6.3105 C   0  0  0  0  0  0  0  0  0  0  0  0
   55.1246   -7.0936   -5.5665 C   0  0  0  0  0  0  0  0  0  0  0  0
   55.0166   -6.6681   -4.0847 C   0  0  0  0  0  0  0  0  0  0  0  0
   56.0312   -5.7274   -3.7453 N   0  0  0  0  0  0  0  0  0  0  0  0
   55.8172   -4.8142   -2.8132 C   0  0  0  0  0  0  0  0  0  0  0  0
   56.8401   -3.8897   -2.4861 N   0  0  0  0  0  0  0  0  0  0  0  0
   54.5750   -4.8404   -2.1290 N   0  0  0  0  0  0  0  0  0  0  0  0
   57.3798   -3.3798   -3.2238 H   0  0  0  0  0  0  0  0  0  0  0  0
   57.0600   -3.6696   -1.4954 H   0  0  0  0  0  0  0  0  0  0  0  0
   54.2552   -5.7092   -1.6102 H   0  0  0  0  0  0  0  0  0  0  0  0
   53.9726   -4.0244   -2.1369 H   0  0  0  0  0  0  0  0  0  0  0  0
   53.2953   -3.5372   -8.6709 C   0  0  0  0  0  0  0  0  0  0  0  0
   52.3166   -2.4520   -8.6654 C   0  0  0  0  0  0  0  0  0  0  0  0
   51.1918   -3.0060   -7.6997 C   0  0  0  0  0  0  0  0  0  0  0  0
   51.6840   -4.1526   -6.9588 N   0  0  0  0  0  0  0  0  0  0  0  0
   51.1331   -4.5550   -5.9187 C   0  0  0  0  0  0  0  0  0  0  0  0
   49.9520   -3.9702   -5.2951 N   0  0  0  0  0  0  0  0  0  0  0  0
   51.6517   -5.6315   -5.1370 N   0  0  0  0  0  0  0  0  0  0  0  0
   50.0929   -3.3437   -4.4989 H   0  0  0  0  0  0  0  0  0  0  0  0
   49.0466   -4.2255   -5.6735 H   0  0  0  0  0  0  0  0  0  0  0  0
   51.8011   -6.5491   -5.5545 H   0  0  0  0  0  0  0  0  0  0  0  0
   51.8699   -5.4984   -4.1145 H   0  0  0  0  0  0  0  0  0  0  0  0
  7  8  1  0  0  0
  8  9  2  0  0  0
  8  1  1  0  0  0
  1 22  1  0  0  0
 22 23  1  0  0  0
 23 24  1  0  0  0
 24 25  1  0  0  0
 25 26  2  0  0  0
 26 27  1  0  0  0
 26 28  1  0  0  0
  1  2  1  0  0  0
  2  3  1  0  0  0
  3  4  2  0  0  0
  3  5  1  0  0  0
  7 11  1  0  0  0
 11 12  1  0  0  0
 12 13  1  0  0  0
 13 14  1  0  0  0
 14 15  2  0  0  0
 15 16  1  0  0  0
 15 17  1  0  0  0
  7 10  1  0  0  0
 27 29  1  0  0  0
 27 30  1  0  0  0
 28 31  1  0  0  0
 28 32  1  0  0  0
  2  6  1  0  0  0
 16 18  1  0  0  0
 16 19  1  0  0  0
 17 20  1  0  0  0
 17 21  1  0  0  0
M  END
> <minimizedAffinity>
-6.68753

> <CNNscore>
0.3793919384

> <CNNaffinity>
5.7955722809

> <CNN_VS>
2.1987934113

> <CNNaffinity_variance>
0.0517561920

$$$$
[H]N([H])C(=NC([H])([H])C([H])([H])C([H])([H])N([H])C(=O)C([H])(N([H])C(=O)C([H])([H])[H])C([H])([H])C([H])([H])C([H])([H])N=C(N([H])[H])N([H])[H])N([H])[H]


 32 31  0  0  0  0  0  0  0  0999 V2000
   54.7992   -4.5761   -8.6815 C   0  0  0  0  0  0  0  0  0  0  0  0
   54.6495   -5.0772   -7.3420 N   0  0  0  0  0  0  0  0  0  0  0  0
   53.6988   -5.9484   -6.7900 C   0  0  0  0  0  0  0  0  0  0  0  0
   52.7281   -6.4751   -7.4435 O   0  0  0  0  0  0  0  0  0  0  0  0
   53.7714   -6.3320   -5.3404 C   0  0  0  0  0  0  0  0  0  0  0  0
   55.3785   -4.7113   -6.6011 H   0  0  0  0  0  0  0  0  0  0  0  0
   57.1695   -5.1503   -8.2868 N   0  0  0  0  0  0  0  0  0  0  0  0
   56.1935   -4.4734   -9.0696 C   0  0  0  0  0  0  0  0  0  0  0  0
   56.6007   -3.8166  -10.0964 O   0  0  0  0  0  0  0  0  0  0  0  0
   56.8197   -5.7623   -7.4633 H   0  0  0  0  0  0  0  0  0  0  0  0
   58.5814   -5.1446   -8.4766 C   0  0  0  0  0  0  0  0  0  0  0  0
   59.0306   -6.0986   -9.5498 C   0  0  0  0  0  0  0  0  0  0  0  0
   60.4917   -6.5406   -9.3079 C   0  0  0  0  0  0  0  0  0  0  0  0
   60.8227   -7.6764  -10.1016 N   0  0  0  0  0  0  0  0  0  0  0  0
   61.2374   -8.7961   -9.5335 C   0  0  0  0  0  0  0  0  0  0  0  0
   61.5577   -9.9170  -10.3392 N   0  0  0  0  0  0  0  0  0  0  0  0
   61.2851   -8.8452   -8.1167 N   0  0  0  0  0  0  0  0  0  0  0  0
   62.1536   -9.8292  -11.1952 H   0  0  0  0  0  0  0  0  0  0  0  0
   61.2318  -10.8681  -10.0796 H   0  0  0  0  0  0  0  0  0  0  0  0
   60.4190   -8.6547   -7.5338 H   0  0  0  0  0  0  0  0  0  0  0  0
   62.1574   -9.0565   -7.6443 H   0  0  0  0  0  0  0  0  0  0  0  0
   53.7540   -3.7571   -9.2675 C   0  0  0  0  0  0  0  0  0  0  0  0
   53.4588   -2.3606   -8.9540 C   0  0  0  0  0  0  0  0  0  0  0  0
   51.9183   -2.4053   -8.5946 C   0  0  0  0  0  0  0  0  0  0  0  0
   51.6964   -3.2457   -7.4324 N   0  0  0  0  0  0  0  0  0  0  0  0
   50.5768   -3.3609   -6.9026 C   0  0  0  0  0  0  0  0  0  0  0  0
   49.3519   -2.7017   -7.3395 N   0  0  0  0  0  0  0  0  0  0  0  0
   50.3598   -4.1206   -5.7133 N   0  0  0  0  0  0  0  0  0  0  0  0
   49.0574   -1.8601   -6.8381 H   0  0  0  0  0  0  0  0  0  0  0  0
   48.8439   -3.1193   -8.1113 H   0  0  0  0  0  0  0  0  0  0  0  0
   50.6103   -5.1078   -5.6769 H   0  0  0  0  0  0  0  0  0  0  0  0
   49.9216   -3.6773   -4.8635 H   0  0  0  0  0  0  0  0  0  0  0  0
  7  8  1  0  0  0
  8  9  2  0  0  0
  8  1  1  0  0  0
  1 22  1  0  0  0
 22 23  1  0  0  0
 23 24  1  0  0  0
 24 25  1  0  0  0
 25 26  2  0  0  0
 26 27  1  0  0  0
 26 28  1  0  0  0
  1  2  1  0  0  0
  2  3  1  0  0  0
  3  4  2  0  0  0
  3  5  1  0  0  0
  7 11  1  0  0  0
 11 12  1  0  0  0
 12 13  1  0  0  0
 13 14  1  0  0  0
 14 15  2  0  0  0
 15 16  1  0  0  0
 15 17  1  0  0  0
  7 10  1  0  0  0
 27 29  1  0  0  0
 27 30  1  0  0  0
 28 31  1  0  0  0
 28 32  1  0  0  0
  2  6  1  0  0  0
 16 18  1  0  0  0
 16 19  1  0  0  0
 17 20  1  0  0  0
 17 21  1  0  0  0
M  END
> <minimizedAffinity>
-6.37578

> <CNNscore>
0.3771275878

> <CNNaffinity>
5.2215986252

> <CNN_VS>
1.9692088366

> <CNNaffinity_variance>
0.1568474472

$$$$
[H]c1nc(N([H])c2c([H])c([H])c(C(F)(F)F)c([H])c2[H])c(C(F)(F)F)c([H])c1C(=O)N(C([H])([H])[H])C([H])([H])[H]


 27 28  0  0  0  0  0  0  0  0999 V2000
   57.3376   -4.1101  -12.3447 C   0  0  0  0  0  0  0  0  0  0  0  0
   56.1318   -3.5632  -12.0615 C   0  0  0  0  0  0  0  0  0  0  0  0
   55.6234   -3.6632  -10.8170 N   0  0  0  0  0  0  0  0  0  0  0  0
   56.3558   -4.3317   -9.8558 C   0  0  0  0  0  0  0  0  0  0  0  0
   57.5607   -4.8983  -10.0804 C   0  0  0  0  0  0  0  0  0  0  0  0
   58.1025   -4.8010  -11.3815 C   0  0  0  0  0  0  0  0  0  0  0  0
   58.1954   -3.4606  -16.0686 C   0  0  0  0  0  0  0  0  0  0  0  0
   57.3513   -3.5870  -14.8483 N   0  0  0  0  0  0  0  0  0  0  0  0
   55.9572   -3.3682  -15.1156 C   0  0  0  0  0  0  0  0  0  0  0  0
   57.9460   -3.7959  -13.6320 C   0  0  0  0  0  0  0  0  0  0  0  0
   59.2494   -3.7108  -13.6510 O   0  0  0  0  0  0  0  0  0  0  0  0
   58.3762   -5.5713   -9.0229 C   0  0  0  0  0  0  0  0  0  0  0  0
   59.5346   -4.8346   -8.7273 F   0  0  0  0  0  0  0  0  0  0  0  0
   58.9251   -6.7578   -9.5539 F   0  0  0  0  0  0  0  0  0  0  0  0
   57.6696   -5.9324   -7.9295 F   0  0  0  0  0  0  0  0  0  0  0  0
   55.8335   -4.3518   -8.5119 N   0  0  0  0  0  0  0  0  0  0  0  0
   56.4609   -4.5063   -7.7490 H   0  0  0  0  0  0  0  0  0  0  0  0
   54.4388   -4.1563   -8.2928 C   0  0  0  0  0  0  0  0  0  0  0  0
   53.7276   -3.0391   -8.5986 C   0  0  0  0  0  0  0  0  0  0  0  0
   52.3880   -2.8817   -8.2159 C   0  0  0  0  0  0  0  0  0  0  0  0
   51.7439   -3.8687   -7.5040 C   0  0  0  0  0  0  0  0  0  0  0  0
   52.4512   -5.0204   -7.1823 C   0  0  0  0  0  0  0  0  0  0  0  0
   53.7495   -5.1552   -7.5671 C   0  0  0  0  0  0  0  0  0  0  0  0
   50.3481   -3.7808   -7.0161 C   0  0  0  0  0  0  0  0  0  0  0  0
   49.6574   -4.9498   -7.2130 F   0  0  0  0  0  0  0  0  0  0  0  0
   49.6548   -2.7270   -7.5566 F   0  0  0  0  0  0  0  0  0  0  0  0
   50.3606   -3.5755   -5.6241 F   0  0  0  0  0  0  0  0  0  0  0  0
  7  8  1  0  0  0
  8  9  1  0  0  0
  8 10  1  0  0  0
 10 11  2  0  0  0
 10  1  1  0  0  0
  1  2  2  0  0  0
  2  3  1  0  0  0
  3  4  2  0  0  0
  4 16  1  0  0  0
 16 18  1  0  0  0
 18 19  2  0  0  0
 19 20  1  0  0  0
 20 21  2  0  0  0
 21 22  1  0  0  0
 22 23  2  0  0  0
 21 24  1  0  0  0
 24 25  1  0  0  0
 24 26  1  0  0  0
 24 27  1  0  0  0
  4  5  1  0  0  0
  5  6  2  0  0  0
  5 12  1  0  0  0
 12 13  1  0  0  0
 12 14  1  0  0  0
 12 15  1  0  0  0
  6  1  1  0  0  0
 23 18  1  0  0  0
 16 17  1  0  0  0
M  END
> <minimizedAffinity>
-8.73009

> <CNNscore>
0.3820881248

> <CNNaffinity>
5.9702043533

> <CNN_VS>
2.2811441422

> <CNNaffinity_variance>
0.0866204351

$$$$
[H]c1nc(N([H])c2c([H])c([H])c(C(F)(F)F)c([H])c2[H])c(C(F)(F)F)c([H])c1C(=O)N(C([H])([H])[H])C([H])([H])[H]


 27 28  0  0  0  0  0  0  0  0999 V2000
   59.3529   -5.9971   -9.3780 C   0  0  0  0  0  0  0  0  0  0  0  0
   58.9458   -5.7350   -8.1136 C   0  0  0  0  0  0  0  0  0  0  0  0
   57.8630   -4.9602   -7.9026 N   0  0  0  0  0  0  0  0  0  0  0  0
   57.1938   -4.4478   -8.9965 C   0  0  0  0  0  0  0  0  0  0  0  0
   57.5545   -4.6729  -10.2781 C   0  0  0  0  0  0  0  0  0  0  0  0
   58.6888   -5.4822  -10.5112 C   0  0  0  0  0  0  0  0  0  0  0  0
   62.6263   -8.0449   -9.7199 C   0  0  0  0  0  0  0  0  0  0  0  0
   61.7222   -6.9534   -9.2626 N   0  0  0  0  0  0  0  0  0  0  0  0
   62.3946   -5.9877   -8.4390 C   0  0  0  0  0  0  0  0  0  0  0  0
   60.3879   -7.0063   -9.5682 C   0  0  0  0  0  0  0  0  0  0  0  0
   60.0091   -8.1269  -10.1226 O   0  0  0  0  0  0  0  0  0  0  0  0
   56.7938   -4.1635  -11.4606 C   0  0  0  0  0  0  0  0  0  0  0  0
   55.4360   -4.5133  -11.3818 F   0  0  0  0  0  0  0  0  0  0  0  0
   57.2016   -4.8753  -12.6086 F   0  0  0  0  0  0  0  0  0  0  0  0
   57.0021   -2.8555  -11.7272 F   0  0  0  0  0  0  0  0  0  0  0  0
   55.9895   -3.6940   -8.7502 N   0  0  0  0  0  0  0  0  0  0  0  0
   55.9536   -2.7327   -9.0222 H   0  0  0  0  0  0  0  0  0  0  0  0
   54.8764   -4.3258   -8.1229 C   0  0  0  0  0  0  0  0  0  0  0  0
   54.8772   -5.5491   -7.5307 C   0  0  0  0  0  0  0  0  0  0  0  0
   53.6999   -6.1516   -7.0654 C   0  0  0  0  0  0  0  0  0  0  0  0
   52.4876   -5.5130   -7.2003 C   0  0  0  0  0  0  0  0  0  0  0  0
   52.4634   -4.2604   -7.8009 C   0  0  0  0  0  0  0  0  0  0  0  0
   53.6182   -3.6914   -8.2417 C   0  0  0  0  0  0  0  0  0  0  0  0
   51.1851   -6.0815   -6.7827 C   0  0  0  0  0  0  0  0  0  0  0  0
   51.1609   -6.3907   -5.4463 F   0  0  0  0  0  0  0  0  0  0  0  0
   50.8117   -7.1732   -7.5259 F   0  0  0  0  0  0  0  0  0  0  0  0
   50.1811   -5.1132   -6.9680 F   0  0  0  0  0  0  0  0  0  0  0  0
  7  8  1  0  0  0
  8  9  1  0  0  0
  8 10  1  0  0  0
 10 11  2  0  0  0
 10  1  1  0  0  0
  1  2  2  0  0  0
  2  3  1  0  0  0
  3  4  2  0  0  0
  4 16  1  0  0  0
 16 18  1  0  0  0
 18 19  2  0  0  0
 19 20  1  0  0  0
 20 21  2  0  0  0
 21 22  1  0  0  0
 22 23  2  0  0  0
 21 24  1  0  0  0
 24 25  1  0  0  0
 24 26  1  0  0  0
 24 27  1  0  0  0
  4  5  1  0  0  0
  5  6  2  0  0  0
  5 12  1  0  0  0
 12 13  1  0  0  0
 12 14  1  0  0  0
 12 15  1  0  0  0
  6  1  1  0  0  0
 23 18  1  0  0  0
 16 17  1  0  0  0
M  END
> <minimizedAffinity>
-8.19484

> <CNNscore>
0.3698311746

> <CNNaffinity>
5.6848893166

> <CNN_VS>
2.1024491787

> <CNNaffinity_variance>
0.2312410176

$$$$
[H]c1nc(N([H])c2c([H])c([H])c(C(F)(F)F)c([H])c2[H])c(C(F)(F)F)c([H])c1C(=O)N(C([H])([H])[H])C([H])([H])[H]


 27 28  0  0  0  0  0  0  0  0999 V2000
   58.8287   -5.4164   -9.1888 C   0  0  0  0  0  0  0  0  0  0  0  0
   57.8827   -5.2274   -8.2388 C   0  0  0  0  0  0  0  0  0  0  0  0
   56.6885   -4.6995   -8.5744 N   0  0  0  0  0  0  0  0  0  0  0  0
   56.4634   -4.3603   -9.8940 C   0  0  0  0  0  0  0  0  0  0  0  0
   57.3686   -4.5235  -10.8825 C   0  0  0  0  0  0  0  0  0  0  0  0
   58.6242   -5.0743  -10.5420 C   0  0  0  0  0  0  0  0  0  0  0  0
   62.0878   -7.5112   -9.0629 C   0  0  0  0  0  0  0  0  0  0  0  0
   61.0721   -6.5700   -9.6109 N   0  0  0  0  0  0  0  0  0  0  0  0
   61.4080   -6.0986  -10.9254 C   0  0  0  0  0  0  0  0  0  0  0  0
   60.0157   -6.1832   -8.8293 C   0  0  0  0  0  0  0  0  0  0  0  0
   60.0943   -6.5802   -7.5872 O   0  0  0  0  0  0  0  0  0  0  0  0
   57.1005   -4.2082  -12.3196 C   0  0  0  0  0  0  0  0  0  0  0  0
   56.2625   -5.1714  -12.9045 F   0  0  0  0  0  0  0  0  0  0  0  0
   58.2904   -4.3855  -13.0569 F   0  0  0  0  0  0  0  0  0  0  0  0
   56.7003   -2.9366  -12.5387 F   0  0  0  0  0  0  0  0  0  0  0  0
   55.1505   -3.8785  -10.2454 N   0  0  0  0  0  0  0  0  0  0  0  0
   54.9730   -3.5947  -11.1874 H   0  0  0  0  0  0  0  0  0  0  0  0
   54.1328   -3.8108   -9.2498 C   0  0  0  0  0  0  0  0  0  0  0  0
   53.8702   -4.7526   -8.3057 C   0  0  0  0  0  0  0  0  0  0  0  0
   52.7571   -4.6663   -7.4577 C   0  0  0  0  0  0  0  0  0  0  0  0
   51.8804   -3.6096   -7.5605 C   0  0  0  0  0  0  0  0  0  0  0  0
   52.1304   -2.6339   -8.5175 C   0  0  0  0  0  0  0  0  0  0  0  0
   53.2191   -2.7343   -9.3277 C   0  0  0  0  0  0  0  0  0  0  0  0
   50.6549   -3.4494   -6.7442 C   0  0  0  0  0  0  0  0  0  0  0  0
   50.2520   -2.1402   -6.6683 F   0  0  0  0  0  0  0  0  0  0  0  0
   50.7751   -3.9792   -5.4839 F   0  0  0  0  0  0  0  0  0  0  0  0
   49.5966   -4.1384   -7.3649 F   0  0  0  0  0  0  0  0  0  0  0  0
  7  8  1  0  0  0
  8  9  1  0  0  0
  8 10  1  0  0  0
 10 11  2  0  0  0
 10  1  1  0  0  0
  1  2  2  0  0  0
  2  3  1  0  0  0
  3  4  2  0  0  0
  4 16  1  0  0  0
 16 18  1  0  0  0
 18 19  2  0  0  0
 19 20  1  0  0  0
 20 21  2  0  0  0
 21 22  1  0  0  0
 22 23  2  0  0  0
 21 24  1  0  0  0
 24 25  1  0  0  0
 24 26  1  0  0  0
 24 27  1  0  0  0
  4  5  1  0  0  0
  5  6  2  0  0  0
  5 12  1  0  0  0
 12 13  1  0  0  0
 12 14  1  0  0  0
 12 15  1  0  0  0
  6  1  1  0  0  0
 23 18  1  0  0  0
 16 17  1  0  0  0
M  END
> <minimizedAffinity>
-8.94526

> <CNNscore>
0.3598775864

> <CNNaffinity>
5.6676855087

> <CNN_VS>
2.0396730900

> <CNNaffinity_variance>
0.2326283008

$$$$
[H]c1nc(N([H])c2c([H])c([H])c(C(F)(F)F)c([H])c2[H])c(C(F)(F)F)c([H])c1C(=O)N(C([H])([H])[H])C([H])([H])[H]


 27 28  0  0  0  0  0  0  0  0999 V2000
   52.5543   -4.3395   -6.8091 C   0  0  0  0  0  0  0  0  0  0  0  0
   52.9562   -3.6395   -7.8962 C   0  0  0  0  0  0  0  0  0  0  0  0
   54.2162   -3.7758   -8.3559 N   0  0  0  0  0  0  0  0  0  0  0  0
   55.0717   -4.6345   -7.6942 C   0  0  0  0  0  0  0  0  0  0  0  0
   54.7279   -5.3555   -6.6055 C   0  0  0  0  0  0  0  0  0  0  0  0
   53.4104   -5.2193   -6.1140 C   0  0  0  0  0  0  0  0  0  0  0  0
   48.8624   -3.4843   -5.9945 C   0  0  0  0  0  0  0  0  0  0  0  0
   50.2249   -3.3107   -6.5699 N   0  0  0  0  0  0  0  0  0  0  0  0
   50.3766   -2.0626   -7.2642 C   0  0  0  0  0  0  0  0  0  0  0  0
   51.1348   -4.3304   -6.4760 C   0  0  0  0  0  0  0  0  0  0  0  0
   50.6437   -5.4453   -6.0043 O   0  0  0  0  0  0  0  0  0  0  0  0
   55.6395   -6.3271   -5.9264 C   0  0  0  0  0  0  0  0  0  0  0  0
   55.2595   -7.6528   -6.1917 F   0  0  0  0  0  0  0  0  0  0  0  0
   55.4350   -6.2494   -4.5325 F   0  0  0  0  0  0  0  0  0  0  0  0
   56.9527   -6.0876   -6.1345 F   0  0  0  0  0  0  0  0  0  0  0  0
   56.3862   -4.8304   -8.2536 N   0  0  0  0  0  0  0  0  0  0  0  0
   57.1529   -5.0164   -7.6395 H   0  0  0  0  0  0  0  0  0  0  0  0
   56.5726   -4.7525   -9.6645 C   0  0  0  0  0  0  0  0  0  0  0  0
   57.7525   -4.8837  -10.3263 C   0  0  0  0  0  0  0  0  0  0  0  0
   57.8631   -4.6496  -11.7042 C   0  0  0  0  0  0  0  0  0  0  0  0
   56.7624   -4.2698  -12.4390 C   0  0  0  0  0  0  0  0  0  0  0  0
   55.5453   -4.1314  -11.7834 C   0  0  0  0  0  0  0  0  0  0  0  0
   55.4587   -4.3678  -10.4460 C   0  0  0  0  0  0  0  0  0  0  0  0
   56.7833   -3.9570  -13.8867 C   0  0  0  0  0  0  0  0  0  0  0  0
   56.4831   -5.0524  -14.6564 F   0  0  0  0  0  0  0  0  0  0  0  0
   57.9681   -3.4012  -14.2998 F   0  0  0  0  0  0  0  0  0  0  0  0
   55.7816   -3.0090  -14.1660 F   0  0  0  0  0  0  0  0  0  0  0  0
  7  8  1  0  0  0
  8  9  1  0  0  0
  8 10  1  0  0  0
 10 11  2  0  0  0
 10  1  1  0  0  0
  1  2  2  0  0  0
  2  3  1  0  0  0
  3  4  2  0  0  0
  4 16  1  0  0  0
 16 18  1  0  0  0
 18 19  2  0  0  0
 19 20  1  0  0  0
 20 21  2  0  0  0
 21 22  1  0  0  0
 22 23  2  0  0  0
 21 24  1  0  0  0
 24 25  1  0  0  0
 24 26  1  0  0  0
 24 27  1  0  0  0
  4  5  1  0  0  0
  5  6  2  0  0  0
  5 12  1  0  0  0
 12 13  1  0  0  0
 12 14  1  0  0  0
 12 15  1  0  0  0
  6  1  1  0  0  0
 23 18  1  0  0  0
 16 17  1  0  0  0
M  END
> <minimizedAffinity>
-8.09429

> <CNNscore>
0.3169940710

> <CNNaffinity>
6.3301424980

> <CNN_VS>
2.0066175461

> <CNNaffinity_variance>
0.1137515306

$$$$
[H]c1nc(N([H])c2c([H])c([H])c(C(F)(F)F)c([H])c2[H])c(C(F)(F)F)c([H])c1C(=O)N(C([H])([H])[H])C([H])([H])[H]


 27 28  0  0  0  0  0  0  0  0999 V2000
   52.6925   -3.4045   -7.7806 C   0  0  0  0  0  0  0  0  0  0  0  0
   53.1874   -3.1494   -9.0148 C   0  0  0  0  0  0  0  0  0  0  0  0
   54.3136   -3.7643   -9.4281 N   0  0  0  0  0  0  0  0  0  0  0  0
   54.9389   -4.6457   -8.5684 C   0  0  0  0  0  0  0  0  0  0  0  0
   54.4935   -4.9371   -7.3274 C   0  0  0  0  0  0  0  0  0  0  0  0
   53.3150   -4.2972   -6.8830 C   0  0  0  0  0  0  0  0  0  0  0  0
   49.0560   -2.7998   -6.5825 C   0  0  0  0  0  0  0  0  0  0  0  0
   50.4157   -3.4063   -6.6153 N   0  0  0  0  0  0  0  0  0  0  0  0
   50.5798   -4.4480   -5.6402 C   0  0  0  0  0  0  0  0  0  0  0  0
   51.3672   -2.8909   -7.4554 C   0  0  0  0  0  0  0  0  0  0  0  0
   51.0116   -1.7855   -8.0538 O   0  0  0  0  0  0  0  0  0  0  0  0
   55.1415   -5.9350   -6.4215 C   0  0  0  0  0  0  0  0  0  0  0  0
   54.5867   -7.2137   -6.5926 F   0  0  0  0  0  0  0  0  0  0  0  0
   54.7786   -5.6468   -5.0887 F   0  0  0  0  0  0  0  0  0  0  0  0
   56.4918   -5.9200   -6.4622 F   0  0  0  0  0  0  0  0  0  0  0  0
   56.0920   -5.3566   -9.0626 N   0  0  0  0  0  0  0  0  0  0  0  0
   56.3057   -6.2576   -8.6859 H   0  0  0  0  0  0  0  0  0  0  0  0
   56.9072   -4.7660  -10.0716 C   0  0  0  0  0  0  0  0  0  0  0  0
   56.4840   -3.9348  -11.0602 C   0  0  0  0  0  0  0  0  0  0  0  0
   57.3326   -3.5160  -12.0947 C   0  0  0  0  0  0  0  0  0  0  0  0
   58.6402   -3.9444  -12.1426 C   0  0  0  0  0  0  0  0  0  0  0  0
   59.0950   -4.7930  -11.1410 C   0  0  0  0  0  0  0  0  0  0  0  0
   58.2562   -5.1842  -10.1434 C   0  0  0  0  0  0  0  0  0  0  0  0
   59.6021   -3.5957  -13.2138 C   0  0  0  0  0  0  0  0  0  0  0  0
   58.9852   -3.4288  -14.4278 F   0  0  0  0  0  0  0  0  0  0  0  0
   60.6303   -4.4975  -13.3276 F   0  0  0  0  0  0  0  0  0  0  0  0
   60.1938   -2.3550  -12.9132 F   0  0  0  0  0  0  0  0  0  0  0  0
  7  8  1  0  0  0
  8  9  1  0  0  0
  8 10  1  0  0  0
 10 11  2  0  0  0
 10  1  1  0  0  0
  1  2  2  0  0  0
  2  3  1  0  0  0
  3  4  2  0  0  0
  4 16  1  0  0  0
 16 18  1  0  0  0
 18 19  2  0  0  0
 19 20  1  0  0  0
 20 21  2  0  0  0
 21 22  1  0  0  0
 22 23  2  0  0  0
 21 24  1  0  0  0
 24 25  1  0  0  0
 24 26  1  0  0  0
 24 27  1  0  0  0
  4  5  1  0  0  0
  5  6  2  0  0  0
  5 12  1  0  0  0
 12 13  1  0  0  0
 12 14  1  0  0  0
 12 15  1  0  0  0
  6  1  1  0  0  0
 23 18  1  0  0  0
 16 17  1  0  0  0
M  END
> <minimizedAffinity>
-7.15793

> <CNNscore>
0.3093307912

> <CNNaffinity>
5.9738373756

> <CNN_VS>
1.8478918076

> <CNNaffinity_variance>
0.2369872779

$$$$
[H]c1nc(N([H])c2c([H])c([H])c(C(F)(F)F)c([H])c2[H])c(C(F)(F)F)c([H])c1C(=O)N(C([H])([H])[H])C([H])([H])[H]


 27 28  0  0  0  0  0  0  0  0999 V2000
   53.8468   -4.1130   -8.4888 C   0  0  0  0  0  0  0  0  0  0  0  0
   53.7193   -3.7709   -9.7926 C   0  0  0  0  0  0  0  0  0  0  0  0
   54.7823   -3.8561  -10.6173 N   0  0  0  0  0  0  0  0  0  0  0  0
   55.9862   -4.2929  -10.1007 C   0  0  0  0  0  0  0  0  0  0  0  0
   56.1731   -4.6448   -8.8105 C   0  0  0  0  0  0  0  0  0  0  0  0
   55.0663   -4.5579   -7.9367 C   0  0  0  0  0  0  0  0  0  0  0  0
   50.5863   -3.5517   -6.4689 C   0  0  0  0  0  0  0  0  0  0  0  0
   51.6444   -3.2883   -7.4833 N   0  0  0  0  0  0  0  0  0  0  0  0
   51.4178   -2.0737   -8.2155 C   0  0  0  0  0  0  0  0  0  0  0  0
   52.6336   -4.2140   -7.6862 C   0  0  0  0  0  0  0  0  0  0  0  0
   52.4531   -5.3398   -7.0487 O   0  0  0  0  0  0  0  0  0  0  0  0
   57.4632   -5.1716   -8.2680 C   0  0  0  0  0  0  0  0  0  0  0  0
   58.0383   -6.1086   -9.1418 F   0  0  0  0  0  0  0  0  0  0  0  0
   57.1921   -5.9708   -7.1372 F   0  0  0  0  0  0  0  0  0  0  0  0
   58.3221   -4.2115   -7.8609 F   0  0  0  0  0  0  0  0  0  0  0  0
   57.0862   -4.4586  -11.0181 N   0  0  0  0  0  0  0  0  0  0  0  0
   57.9984   -4.6459  -10.6543 H   0  0  0  0  0  0  0  0  0  0  0  0
   56.8589   -4.3498  -12.4209 C   0  0  0  0  0  0  0  0  0  0  0  0
   56.0175   -5.1206  -13.1594 C   0  0  0  0  0  0  0  0  0  0  0  0
   55.9652   -5.0361  -14.5579 C   0  0  0  0  0  0  0  0  0  0  0  0
   56.7808   -4.1581  -15.2360 C   0  0  0  0  0  0  0  0  0  0  0  0
   57.6474   -3.3588  -14.5010 C   0  0  0  0  0  0  0  0  0  0  0  0
   57.6794   -3.4533  -13.1438 C   0  0  0  0  0  0  0  0  0  0  0  0
   56.8330   -4.0244  -16.7102 C   0  0  0  0  0  0  0  0  0  0  0  0
   55.6851   -3.4723  -17.2199 F   0  0  0  0  0  0  0  0  0  0  0  0
   57.1105   -5.2074  -17.3481 F   0  0  0  0  0  0  0  0  0  0  0  0
   57.8684   -3.1358  -17.0541 F   0  0  0  0  0  0  0  0  0  0  0  0
  7  8  1  0  0  0
  8  9  1  0  0  0
  8 10  1  0  0  0
 10 11  2  0  0  0
 10  1  1  0  0  0
  1  2  2  0  0  0
  2  3  1  0  0  0
  3  4  2  0  0  0
  4 16  1  0  0  0
 16 18  1  0  0  0
 18 19  2  0  0  0
 19 20  1  0  0  0
 20 21  2  0  0  0
 21 22  1  0  0  0
 22 23  2  0  0  0
 21 24  1  0  0  0
 24 25  1  0  0  0
 24 26  1  0  0  0
 24 27  1  0  0  0
  4  5  1  0  0  0
  5  6  2  0  0  0
  5 12  1  0  0  0
 12 13  1  0  0  0
 12 14  1  0  0  0
 12 15  1  0  0  0
  6  1  1  0  0  0
 23 18  1  0  0  0
 16 17  1  0  0  0
M  END
> <minimizedAffinity>
-7.42441

> <CNNscore>
0.2965213656

> <CNNaffinity>
5.8572130203

> <CNN_VS>
1.7367887497

> <CNNaffinity_variance>
0.1086648703

$$$$
[H]c1nc(N([H])c2c([H])c([H])c(C(F)(F)F)c([H])c2[H])c(C(F)(F)F)c([H])c1C(=O)N(C([H])([H])[H])C([H])([H])[H]


 27 28  0  0  0  0  0  0  0  0999 V2000
   60.0872   -3.2840  -14.6828 C   0  0  0  0  0  0  0  0  0  0  0  0
   60.2198   -3.7386  -13.4143 C   0  0  0  0  0  0  0  0  0  0  0  0
   59.1300   -4.1232  -12.7203 N   0  0  0  0  0  0  0  0  0  0  0  0
   57.8941   -4.0386  -13.3306 C   0  0  0  0  0  0  0  0  0  0  0  0
   57.7008   -3.5918  -14.5901 C   0  0  0  0  0  0  0  0  0  0  0  0
   58.8357   -3.1845  -15.3263 C   0  0  0  0  0  0  0  0  0  0  0  0
   63.0982   -3.4887  -17.1154 C   0  0  0  0  0  0  0  0  0  0  0  0
   61.7287   -3.7448  -16.5893 N   0  0  0  0  0  0  0  0  0  0  0  0
   60.9705   -4.6293  -17.4294 C   0  0  0  0  0  0  0  0  0  0  0  0
   61.2993   -3.0847  -15.4683 C   0  0  0  0  0  0  0  0  0  0  0  0
   62.1144   -2.1539  -15.0492 O   0  0  0  0  0  0  0  0  0  0  0  0
   56.3679   -3.5557  -15.2671 C   0  0  0  0  0  0  0  0  0  0  0  0
   55.9552   -4.8428  -15.6482 F   0  0  0  0  0  0  0  0  0  0  0  0
   56.5079   -2.9225  -16.5203 F   0  0  0  0  0  0  0  0  0  0  0  0
   55.4258   -2.8623  -14.5912 F   0  0  0  0  0  0  0  0  0  0  0  0
   56.7535   -4.5359  -12.6018 N   0  0  0  0  0  0  0  0  0  0  0  0
   55.9935   -4.9434  -13.1076 H   0  0  0  0  0  0  0  0  0  0  0  0
   56.7250   -4.4361  -11.1803 C   0  0  0  0  0  0  0  0  0  0  0  0
   57.6423   -4.9538  -10.3212 C   0  0  0  0  0  0  0  0  0  0  0  0
   57.4573   -4.9298   -8.9317 C   0  0  0  0  0  0  0  0  0  0  0  0
   56.3206   -4.3754   -8.3874 C   0  0  0  0  0  0  0  0  0  0  0  0
   55.3703   -3.8383   -9.2469 C   0  0  0  0  0  0  0  0  0  0  0  0
   55.5712   -3.8678  -10.5925 C   0  0  0  0  0  0  0  0  0  0  0  0
   56.0110   -4.3399   -6.9394 C   0  0  0  0  0  0  0  0  0  0  0  0
   54.6806   -4.5636   -6.6898 F   0  0  0  0  0  0  0  0  0  0  0  0
   56.4157   -3.1782   -6.3311 F   0  0  0  0  0  0  0  0  0  0  0  0
   56.7001   -5.3851   -6.2969 F   0  0  0  0  0  0  0  0  0  0  0  0
  7  8  1  0  0  0
  8  9  1  0  0  0
  8 10  1  0  0  0
 10 11  2  0  0  0
 10  1  1  0  0  0
  1  2  2  0  0  0
  2  3  1  0  0  0
  3  4  2  0  0  0
  4 16  1  0  0  0
 16 18  1  0  0  0
 18 19  2  0  0  0
 19 20  1  0  0  0
 20 21  2  0  0  0
 21 22  1  0  0  0
 22 23  2  0  0  0
 21 24  1  0  0  0
 24 25  1  0  0  0
 24 26  1  0  0  0
 24 27  1  0  0  0
  4  5  1  0  0  0
  5  6  2  0  0  0
  5 12  1  0  0  0
 12 13  1  0  0  0
 12 14  1  0  0  0
 12 15  1  0  0  0
  6  1  1  0  0  0
 23 18  1  0  0  0
 16 17  1  0  0  0
M  END
> <minimizedAffinity>
-7.33855

> <CNNscore>
0.2555257976

> <CNNaffinity>
4.8334388733

> <CNN_VS>
1.2350683212

> <CNNaffinity_variance>
0.2885087729

$$$$
[H]c1nc(N([H])c2c([H])c([H])c(C(F)(F)F)c([H])c2[H])c(C(F)(F)F)c([H])c1C(=O)N(C([H])([H])[H])C([H])([H])[H]


 27 28  0  0  0  0  0  0  0  0999 V2000
   51.3000   -5.5991   -4.4010 C   0  0  0  0  0  0  0  0  0  0  0  0
   52.4695   -5.8597   -5.0315 C   0  0  0  0  0  0  0  0  0  0  0  0
   52.7777   -5.2110   -6.1723 N   0  0  0  0  0  0  0  0  0  0  0  0
   51.8785   -4.2898   -6.6723 C   0  0  0  0  0  0  0  0  0  0  0  0
   50.6978   -3.9910   -6.0891 C   0  0  0  0  0  0  0  0  0  0  0  0
   50.3637   -4.6659   -4.8938 C   0  0  0  0  0  0  0  0  0  0  0  0
   51.4023   -7.5900   -1.0767 C   0  0  0  0  0  0  0  0  0  0  0  0
   51.9021   -7.0080   -2.3531 N   0  0  0  0  0  0  0  0  0  0  0  0
   53.2651   -7.3679   -2.6281 C   0  0  0  0  0  0  0  0  0  0  0  0
   51.1026   -6.1558   -3.0679 C   0  0  0  0  0  0  0  0  0  0  0  0
   50.0006   -5.8141   -2.4551 O   0  0  0  0  0  0  0  0  0  0  0  0
   49.7532   -2.9516   -6.6026 C   0  0  0  0  0  0  0  0  0  0  0  0
   48.6362   -2.8189   -5.7619 F   0  0  0  0  0  0  0  0  0  0  0  0
   49.1564   -3.4227   -7.7912 F   0  0  0  0  0  0  0  0  0  0  0  0
   50.3429   -1.7757   -6.9103 F   0  0  0  0  0  0  0  0  0  0  0  0
   52.2665   -3.5459   -7.8450 N   0  0  0  0  0  0  0  0  0  0  0  0
   51.6505   -2.8434   -8.2008 H   0  0  0  0  0  0  0  0  0  0  0  0
   53.5129   -3.8240   -8.4779 C   0  0  0  0  0  0  0  0  0  0  0  0
   54.7128   -3.9714   -7.8567 C   0  0  0  0  0  0  0  0  0  0  0  0
   55.9109   -4.1015   -8.5732 C   0  0  0  0  0  0  0  0  0  0  0  0
   55.9078   -4.0795   -9.9499 C   0  0  0  0  0  0  0  0  0  0  0  0
   54.6921   -3.9319  -10.6060 C   0  0  0  0  0  0  0  0  0  0  0  0
   53.5400   -3.8116   -9.8917 C   0  0  0  0  0  0  0  0  0  0  0  0
   57.1203   -4.1650  -10.7963 C   0  0  0  0  0  0  0  0  0  0  0  0
   58.1596   -4.7841  -10.1492 F   0  0  0  0  0  0  0  0  0  0  0  0
   57.5255   -2.9463  -11.2801 F   0  0  0  0  0  0  0  0  0  0  0  0
   56.8404   -4.9648  -11.9197 F   0  0  0  0  0  0  0  0  0  0  0  0
  7  8  1  0  0  0
  8  9  1  0  0  0
  8 10  1  0  0  0
 10 11  2  0  0  0
 10  1  1  0  0  0
  1  2  2  0  0  0
  2  3  1  0  0  0
  3  4  2  0  0  0
  4 16  1  0  0  0
 16 18  1  0  0  0
 18 19  2  0  0  0
 19 20  1  0  0  0
 20 21  2  0  0  0
 21 22  1  0  0  0
 22 23  2  0  0  0
 21 24  1  0  0  0
 24 25  1  0  0  0
 24 26  1  0  0  0
 24 27  1  0  0  0
  4  5  1  0  0  0
  5  6  2  0  0  0
  5 12  1  0  0  0
 12 13  1  0  0  0
 12 14  1  0  0  0
 12 15  1  0  0  0
  6  1  1  0  0  0
 23 18  1  0  0  0
 16 17  1  0  0  0
M  END
> <minimizedAffinity>
-10.09318

> <CNNscore>
0.2528524101

> <CNNaffinity>
6.1779899597

> <CNN_VS>
1.5621196032

> <CNNaffinity_variance>
0.1997223645

$$$$
[H]c1nc(N([H])c2c([H])c([H])c(C(F)(F)F)c([H])c2[H])c(C(F)(F)F)c([H])c1C(=O)N(C([H])([H])[H])C([H])([H])[H]


 27 28  0  0  0  0  0  0  0  0999 V2000
   57.2477   -4.2097  -12.1649 C   0  0  0  0  0  0  0  0  0  0  0  0
   55.9429   -3.8805  -12.0157 C   0  0  0  0  0  0  0  0  0  0  0  0
   55.3420   -4.0381  -10.8193 N   0  0  0  0  0  0  0  0  0  0  0  0
   56.0839   -4.5397   -9.7682 C   0  0  0  0  0  0  0  0  0  0  0  0
   57.3857   -4.8870   -9.8583 C   0  0  0  0  0  0  0  0  0  0  0  0
   58.0253   -4.7276  -11.1078 C   0  0  0  0  0  0  0  0  0  0  0  0
   58.2854   -3.3961  -15.8100 C   0  0  0  0  0  0  0  0  0  0  0  0
   57.3798   -3.6020  -14.6458 N   0  0  0  0  0  0  0  0  0  0  0  0
   55.9944   -3.4381  -14.9875 C   0  0  0  0  0  0  0  0  0  0  0  0
   57.9132   -3.8247  -13.4038 C   0  0  0  0  0  0  0  0  0  0  0  0
   59.2101   -3.6797  -13.3436 O   0  0  0  0  0  0  0  0  0  0  0  0
   58.2005   -5.3758   -8.7035 C   0  0  0  0  0  0  0  0  0  0  0  0
   57.4022   -6.0526   -7.7672 F   0  0  0  0  0  0  0  0  0  0  0  0
   58.6385   -4.2662   -7.9500 F   0  0  0  0  0  0  0  0  0  0  0  0
   59.3107   -6.0570   -9.0624 F   0  0  0  0  0  0  0  0  0  0  0  0
   55.4457   -4.6186   -8.4776 N   0  0  0  0  0  0  0  0  0  0  0  0
   55.9449   -5.0248   -7.7125 H   0  0  0  0  0  0  0  0  0  0  0  0
   54.1194   -4.1231   -8.3137 C   0  0  0  0  0  0  0  0  0  0  0  0
   53.6313   -2.9570   -8.8131 C   0  0  0  0  0  0  0  0  0  0  0  0
   52.3549   -2.4814   -8.4808 C   0  0  0  0  0  0  0  0  0  0  0  0
   51.5464   -3.1913   -7.6216 C   0  0  0  0  0  0  0  0  0  0  0  0
   52.0243   -4.3873   -7.1006 C   0  0  0  0  0  0  0  0  0  0  0  0
   53.2645   -4.8334   -7.4394 C   0  0  0  0  0  0  0  0  0  0  0  0
   50.2035   -2.7544   -7.1746 C   0  0  0  0  0  0  0  0  0  0  0  0
   50.0188   -2.9474   -5.8289 F   0  0  0  0  0  0  0  0  0  0  0  0
   49.1840   -3.3437   -7.8795 F   0  0  0  0  0  0  0  0  0  0  0  0
   50.0794   -1.3681   -7.3814 F   0  0  0  0  0  0  0  0  0  0  0  0
  7  8  1  0  0  0
  8  9  1  0  0  0
  8 10  1  0  0  0
 10 11  2  0  0  0
 10  1  1  0  0  0
  1  2  2  0  0  0
  2  3  1  0  0  0
  3  4  2  0  0  0
  4 16  1  0  0  0
 16 18  1  0  0  0
 18 19  2  0  0  0
 19 20  1  0  0  0
 20 21  2  0  0  0
 21 22  1  0  0  0
 22 23  2  0  0  0
 21 24  1  0  0  0
 24 25  1  0  0  0
 24 26  1  0  0  0
 24 27  1  0  0  0
  4  5  1  0  0  0
  5  6  2  0  0  0
  5 12  1  0  0  0
 12 13  1  0  0  0
 12 14  1  0  0  0
 12 15  1  0  0  0
  6  1  1  0  0  0
 23 18  1  0  0  0
 16 17  1  0  0  0
M  END
> <minimizedAffinity>
-9.60432

> <CNNscore>
0.2521735132

> <CNNaffinity>
5.7790212631

> <CNN_VS>
1.4573160410

> <CNNaffinity_variance>
0.0842048079

$$$$
[H]c1nc(N([H])c2c([H])c([H])c(N3C([H])([H])C([H])([H])N(C([H])([H])[H])C([H])([H])C3([H])[H])c(C([H])([H])[H])c2[H])nc(N([H])c2c([H])c([H])c([H])c(C(F)(F)F)c2[H])c1C#N


 36 39  0  0  0  0  0  0  0  0999 V2000
   53.5716   -3.4392   -9.4910 C   0  0  0  0  0  0  0  0  0  0  0  0
   52.8396   -2.3534   -9.2919 N   0  0  0  0  0  0  0  0  0  0  0  0
   51.8391   -2.1950   -8.4159 C   0  0  0  0  0  0  0  0  0  0  0  0
   51.5595   -3.3320   -7.6300 C   0  0  0  0  0  0  0  0  0  0  0  0
   52.2915   -4.4780   -7.7980 C   0  0  0  0  0  0  0  0  0  0  0  0
   53.2609   -4.5308   -8.6956 N   0  0  0  0  0  0  0  0  0  0  0  0
   54.6327   -3.5838  -10.4216 N   0  0  0  0  0  0  0  0  0  0  0  0
   54.4559   -3.2631  -11.4148 H   0  0  0  0  0  0  0  0  0  0  0  0
   58.3797   -5.3995   -9.5506 C   0  0  0  0  0  0  0  0  0  0  0  0
   58.0588   -4.9310  -10.8306 C   0  0  0  0  0  0  0  0  0  0  0  0
   56.8567   -4.3186  -11.0941 C   0  0  0  0  0  0  0  0  0  0  0  0
   55.8929   -4.1296  -10.0941 C   0  0  0  0  0  0  0  0  0  0  0  0
   56.2129   -4.5893   -8.8474 C   0  0  0  0  0  0  0  0  0  0  0  0
   57.4365   -5.2156   -8.5798 C   0  0  0  0  0  0  0  0  0  0  0  0
   57.6339   -5.7129   -7.2190 C   0  0  0  0  0  0  0  0  0  0  0  0
   62.2698   -9.0634   -8.4544 C   0  0  0  0  0  0  0  0  0  0  0  0
   61.6767   -7.8682   -8.9544 N   0  0  0  0  0  0  0  0  0  0  0  0
   61.3197   -6.9736   -7.8931 C   0  0  0  0  0  0  0  0  0  0  0  0
   60.5768   -5.7587   -8.3146 C   0  0  0  0  0  0  0  0  0  0  0  0
   59.6451   -6.0155   -9.3632 N   0  0  0  0  0  0  0  0  0  0  0  0
   60.0068   -6.9921  -10.3996 C   0  0  0  0  0  0  0  0  0  0  0  0
   60.4640   -8.2348   -9.6940 C   0  0  0  0  0  0  0  0  0  0  0  0
   50.4898   -3.2527   -6.6659 C   0  0  0  0  0  0  0  0  0  0  0  0
   49.6210   -3.1750   -5.8720 N   0  0  0  0  0  0  0  0  0  0  0  0
   51.9686   -5.6131   -6.9737 N   0  0  0  0  0  0  0  0  0  0  0  0
   51.2457   -6.2733   -7.2800 H   0  0  0  0  0  0  0  0  0  0  0  0
   52.7055   -5.7031   -5.7773 C   0  0  0  0  0  0  0  0  0  0  0  0
   54.0572   -5.7502   -5.7473 C   0  0  0  0  0  0  0  0  0  0  0  0
   54.7435   -5.8023   -4.5256 C   0  0  0  0  0  0  0  0  0  0  0  0
   54.0117   -5.8062   -3.3477 C   0  0  0  0  0  0  0  0  0  0  0  0
   52.6386   -5.7599   -3.3641 C   0  0  0  0  0  0  0  0  0  0  0  0
   51.9997   -5.7096   -4.5830 C   0  0  0  0  0  0  0  0  0  0  0  0
   51.8373   -5.7506   -2.1188 C   0  0  0  0  0  0  0  0  0  0  0  0
   52.0648   -6.8178   -1.2983 F   0  0  0  0  0  0  0  0  0  0  0  0
   52.1339   -4.5955   -1.3940 F   0  0  0  0  0  0  0  0  0  0  0  0
   50.5076   -5.6578   -2.4872 F   0  0  0  0  0  0  0  0  0  0  0  0
 16 17  1  0  0  0
 17 18  1  0  0  0
 18 19  1  0  0  0
 19 20  1  0  0  0
 20 21  1  0  0  0
 21 22  1  0  0  0
 20  9  1  0  0  0
  9 10  2  0  0  0
 10 11  1  0  0  0
 11 12  2  0  0  0
 12  7  1  0  0  0
  7  1  1  0  0  0
  1  2  2  0  0  0
  2  3  1  0  0  0
  3  4  2  0  0  0
  4 23  1  0  0  0
 23 24  3  0  0  0
  4  5  1  0  0  0
  5 25  1  0  0  0
 25 27  1  0  0  0
 27 28  2  0  0  0
 28 29  1  0  0  0
 29 30  2  0  0  0
 30 31  1  0  0  0
 31 32  2  0  0  0
 31 33  1  0  0  0
 33 34  1  0  0  0
 33 35  1  0  0  0
 33 36  1  0  0  0
  5  6  2  0  0  0
 12 13  1  0  0  0
 13 14  2  0  0  0
 14 15  1  0  0  0
 22 17  1  0  0  0
 14  9  1  0  0  0
  6  1  1  0  0  0
 32 27  1  0  0  0
  7  8  1  0  0  0
 25 26  1  0  0  0
M  END
> <minimizedAffinity>
-8.63148

> <CNNscore>
0.6611052752

> <CNNaffinity>
7.5672302246

> <CNN_VS>
5.0027356148

> <CNNaffinity_variance>
0.0900634676

$$$$
[H]c1nc(N([H])c2c([H])c([H])c(N3C([H])([H])C([H])([H])N(C([H])([H])[H])C([H])([H])C3([H])[H])c(C([H])([H])[H])c2[H])nc(N([H])c2c([H])c([H])c([H])c(C(F)(F)F)c2[H])c1C#N


 36 39  0  0  0  0  0  0  0  0999 V2000
   53.7197   -3.4696   -9.4974 C   0  0  0  0  0  0  0  0  0  0  0  0
   53.0113   -2.3803   -9.2405 N   0  0  0  0  0  0  0  0  0  0  0  0
   52.0063   -2.2500   -8.3650 C   0  0  0  0  0  0  0  0  0  0  0  0
   51.6926   -3.4243   -7.6502 C   0  0  0  0  0  0  0  0  0  0  0  0
   52.3993   -4.5756   -7.8796 C   0  0  0  0  0  0  0  0  0  0  0  0
   53.3758   -4.5985   -8.7706 N   0  0  0  0  0  0  0  0  0  0  0  0
   54.7862   -3.5844  -10.4260 N   0  0  0  0  0  0  0  0  0  0  0  0
   54.6176   -3.2251  -11.4074 H   0  0  0  0  0  0  0  0  0  0  0  0
   58.5149   -5.4558   -9.5955 C   0  0  0  0  0  0  0  0  0  0  0  0
   58.1919   -4.9719  -10.8692 C   0  0  0  0  0  0  0  0  0  0  0  0
   56.9961   -4.3418  -11.1195 C   0  0  0  0  0  0  0  0  0  0  0  0
   56.0413   -4.1493  -10.1116 C   0  0  0  0  0  0  0  0  0  0  0  0
   56.3633   -4.6242   -8.8711 C   0  0  0  0  0  0  0  0  0  0  0  0
   57.5804   -5.2684   -8.6171 C   0  0  0  0  0  0  0  0  0  0  0  0
   57.7801   -5.7803   -7.2620 C   0  0  0  0  0  0  0  0  0  0  0  0
   62.3714   -9.1117   -8.3623 C   0  0  0  0  0  0  0  0  0  0  0  0
   61.7787   -7.9552   -8.9466 N   0  0  0  0  0  0  0  0  0  0  0  0
   61.5122   -6.9465   -7.9639 C   0  0  0  0  0  0  0  0  0  0  0  0
   60.7756   -5.7576   -8.4632 C   0  0  0  0  0  0  0  0  0  0  0  0
   59.7734   -6.0896   -9.4218 N   0  0  0  0  0  0  0  0  0  0  0  0
   60.0440   -7.1775  -10.3716 C   0  0  0  0  0  0  0  0  0  0  0  0
   60.5128   -8.3561   -9.5702 C   0  0  0  0  0  0  0  0  0  0  0  0
   50.6157   -3.3765   -6.6920 C   0  0  0  0  0  0  0  0  0  0  0  0
   49.7412   -3.3248   -5.9023 N   0  0  0  0  0  0  0  0  0  0  0  0
   52.0419   -5.7492   -7.1266 N   0  0  0  0  0  0  0  0  0  0  0  0
   51.4932   -6.4915   -7.5741 H   0  0  0  0  0  0  0  0  0  0  0  0
   52.4967   -5.7575   -5.7941 C   0  0  0  0  0  0  0  0  0  0  0  0
   51.7043   -6.0859   -4.7480 C   0  0  0  0  0  0  0  0  0  0  0  0
   52.2179   -6.1140   -3.4436 C   0  0  0  0  0  0  0  0  0  0  0  0
   53.5532   -5.7975   -3.2442 C   0  0  0  0  0  0  0  0  0  0  0  0
   54.3686   -5.4611   -4.2977 C   0  0  0  0  0  0  0  0  0  0  0  0
   53.8285   -5.4442   -5.5643 C   0  0  0  0  0  0  0  0  0  0  0  0
   55.8002   -5.1317   -4.1099 C   0  0  0  0  0  0  0  0  0  0  0  0
   56.1100   -4.6709   -2.8627 F   0  0  0  0  0  0  0  0  0  0  0  0
   56.5651   -6.2771   -4.3342 F   0  0  0  0  0  0  0  0  0  0  0  0
   56.1451   -4.2246   -5.0951 F   0  0  0  0  0  0  0  0  0  0  0  0
 16 17  1  0  0  0
 17 18  1  0  0  0
 18 19  1  0  0  0
 19 20  1  0  0  0
 20 21  1  0  0  0
 21 22  1  0  0  0
 20  9  1  0  0  0
  9 10  2  0  0  0
 10 11  1  0  0  0
 11 12  2  0  0  0
 12  7  1  0  0  0
  7  1  1  0  0  0
  1  2  2  0  0  0
  2  3  1  0  0  0
  3  4  2  0  0  0
  4 23  1  0  0  0
 23 24  3  0  0  0
  4  5  1  0  0  0
  5 25  1  0  0  0
 25 27  1  0  0  0
 27 28  2  0  0  0
 28 29  1  0  0  0
 29 30  2  0  0  0
 30 31  1  0  0  0
 31 32  2  0  0  0
 31 33  1  0  0  0
 33 34  1  0  0  0
 33 35  1  0  0  0
 33 36  1  0  0  0
  5  6  2  0  0  0
 12 13  1  0  0  0
 13 14  2  0  0  0
 14 15  1  0  0  0
 22 17  1  0  0  0
 14  9  1  0  0  0
  6  1  1  0  0  0
 32 27  1  0  0  0
  7  8  1  0  0  0
 25 26  1  0  0  0
M  END
> <minimizedAffinity>
-8.33663

> <CNNscore>
0.6129469275

> <CNNaffinity>
7.6515398026

> <CNN_VS>
4.6899876595

> <CNNaffinity_variance>
0.1896780729

$$$$
[H]c1nc(N([H])c2c([H])c([H])c(N3C([H])([H])C([H])([H])N(C([H])([H])[H])C([H])([H])C3([H])[H])c(C([H])([H])[H])c2[H])nc(N([H])c2c([H])c([H])c([H])c(C(F)(F)F)c2[H])c1C#N


 36 39  0  0  0  0  0  0  0  0999 V2000
   54.0595   -3.2656   -8.8746 C   0  0  0  0  0  0  0  0  0  0  0  0
   53.0535   -2.4169   -8.7256 N   0  0  0  0  0  0  0  0  0  0  0  0
   51.8946   -2.6311   -8.0896 C   0  0  0  0  0  0  0  0  0  0  0  0
   51.7626   -3.9160   -7.5239 C   0  0  0  0  0  0  0  0  0  0  0  0
   52.7776   -4.8278   -7.6498 C   0  0  0  0  0  0  0  0  0  0  0  0
   53.8847   -4.5154   -8.3016 N   0  0  0  0  0  0  0  0  0  0  0  0
   55.2831   -3.0156   -9.5478 N   0  0  0  0  0  0  0  0  0  0  0  0
   55.3709   -2.1012  -10.0740 H   0  0  0  0  0  0  0  0  0  0  0  0
   58.6637   -5.5948   -9.4294 C   0  0  0  0  0  0  0  0  0  0  0  0
   57.8099   -5.4353   -8.3311 C   0  0  0  0  0  0  0  0  0  0  0  0
   56.7031   -4.6222   -8.3901 C   0  0  0  0  0  0  0  0  0  0  0  0
   56.3718   -3.9144   -9.5536 C   0  0  0  0  0  0  0  0  0  0  0  0
   57.2096   -4.0749  -10.6215 C   0  0  0  0  0  0  0  0  0  0  0  0
   58.3386   -4.9010  -10.5603 C   0  0  0  0  0  0  0  0  0  0  0  0
   59.1849   -4.9429  -11.7520 C   0  0  0  0  0  0  0  0  0  0  0  0
   63.6717   -7.7252   -9.8039 C   0  0  0  0  0  0  0  0  0  0  0  0
   62.3461   -7.5308   -9.3190 N   0  0  0  0  0  0  0  0  0  0  0  0
   61.3691   -8.0201  -10.2464 C   0  0  0  0  0  0  0  0  0  0  0  0
   59.9569   -7.7413   -9.8813 C   0  0  0  0  0  0  0  0  0  0  0  0
   59.7821   -6.4575   -9.2856 N   0  0  0  0  0  0  0  0  0  0  0  0
   60.8340   -5.9482   -8.3950 C   0  0  0  0  0  0  0  0  0  0  0  0
   62.1371   -6.0918   -9.1247 C   0  0  0  0  0  0  0  0  0  0  0  0
   50.5408   -4.2363   -6.8277 C   0  0  0  0  0  0  0  0  0  0  0  0
   49.5380   -4.5081   -6.2694 N   0  0  0  0  0  0  0  0  0  0  0  0
   52.5965   -6.1268   -7.0566 N   0  0  0  0  0  0  0  0  0  0  0  0
   51.8421   -6.7364   -7.3906 H   0  0  0  0  0  0  0  0  0  0  0  0
   53.5089   -6.4404   -6.0310 C   0  0  0  0  0  0  0  0  0  0  0  0
   54.6648   -7.1074   -6.2528 C   0  0  0  0  0  0  0  0  0  0  0  0
   55.5563   -7.3617   -5.2008 C   0  0  0  0  0  0  0  0  0  0  0  0
   55.2314   -6.9184   -3.9277 C   0  0  0  0  0  0  0  0  0  0  0  0
   54.0603   -6.2409   -3.6885 C   0  0  0  0  0  0  0  0  0  0  0  0
   53.2096   -6.0100   -4.7466 C   0  0  0  0  0  0  0  0  0  0  0  0
   53.6987   -5.7475   -2.3398 C   0  0  0  0  0  0  0  0  0  0  0  0
   53.9055   -6.6520   -1.3384 F   0  0  0  0  0  0  0  0  0  0  0  0
   54.4636   -4.6177   -2.0471 F   0  0  0  0  0  0  0  0  0  0  0  0
   52.3809   -5.3315   -2.3948 F   0  0  0  0  0  0  0  0  0  0  0  0
 16 17  1  0  0  0
 17 18  1  0  0  0
 18 19  1  0  0  0
 19 20  1  0  0  0
 20 21  1  0  0  0
 21 22  1  0  0  0
 20  9  1  0  0  0
  9 10  2  0  0  0
 10 11  1  0  0  0
 11 12  2  0  0  0
 12  7  1  0  0  0
  7  1  1  0  0  0
  1  2  2  0  0  0
  2  3  1  0  0  0
  3  4  2  0  0  0
  4 23  1  0  0  0
 23 24  3  0  0  0
  4  5  1  0  0  0
  5 25  1  0  0  0
 25 27  1  0  0  0
 27 28  2  0  0  0
 28 29  1  0  0  0
 29 30  2  0  0  0
 30 31  1  0  0  0
 31 32  2  0  0  0
 31 33  1  0  0  0
 33 34  1  0  0  0
 33 35  1  0  0  0
 33 36  1  0  0  0
  5  6  2  0  0  0
 12 13  1  0  0  0
 13 14  2  0  0  0
 14 15  1  0  0  0
 22 17  1  0  0  0
 14  9  1  0  0  0
  6  1  1  0  0  0
 32 27  1  0  0  0
  7  8  1  0  0  0
 25 26  1  0  0  0
M  END
> <minimizedAffinity>
-7.36998

> <CNNscore>
0.5151092410

> <CNNaffinity>
7.4074354172

> <CNN_VS>
3.8156385422

> <CNNaffinity_variance>
0.2516874373

$$$$
[H]c1nc(N([H])c2c([H])c([H])c(N3C([H])([H])C([H])([H])N(C([H])([H])[H])C([H])([H])C3([H])[H])c(C([H])([H])[H])c2[H])nc(N([H])c2c([H])c([H])c([H])c(C(F)(F)F)c2[H])c1C#N


 36 39  0  0  0  0  0  0  0  0999 V2000
   56.5607   -4.1064   -6.9069 C   0  0  0  0  0  0  0  0  0  0  0  0
   57.4337   -4.6777   -7.7229 N   0  0  0  0  0  0  0  0  0  0  0  0
   57.3481   -4.7954   -9.0542 C   0  0  0  0  0  0  0  0  0  0  0  0
   56.1846   -4.2353   -9.6208 C   0  0  0  0  0  0  0  0  0  0  0  0
   55.2535   -3.6313   -8.8173 C   0  0  0  0  0  0  0  0  0  0  0  0
   55.4335   -3.5697   -7.5089 N   0  0  0  0  0  0  0  0  0  0  0  0
   56.6742   -3.9870   -5.4977 N   0  0  0  0  0  0  0  0  0  0  0  0
   57.4140   -3.3289   -5.1233 H   0  0  0  0  0  0  0  0  0  0  0  0
   54.0740   -5.9845   -2.7876 C   0  0  0  0  0  0  0  0  0  0  0  0
   53.8836   -6.0318   -4.1741 C   0  0  0  0  0  0  0  0  0  0  0  0
   54.7473   -5.4075   -5.0425 C   0  0  0  0  0  0  0  0  0  0  0  0
   55.8637   -4.6948   -4.5838 C   0  0  0  0  0  0  0  0  0  0  0  0
   56.0431   -4.6528   -3.2295 C   0  0  0  0  0  0  0  0  0  0  0  0
   55.1616   -5.2865   -2.3451 C   0  0  0  0  0  0  0  0  0  0  0  0
   55.4327   -5.1189   -0.9180 C   0  0  0  0  0  0  0  0  0  0  0  0
   50.2676   -9.4647   -1.0108 C   0  0  0  0  0  0  0  0  0  0  0  0
   51.3029   -8.4877   -0.9505 N   0  0  0  0  0  0  0  0  0  0  0  0
   50.8431   -7.2051   -1.3950 C   0  0  0  0  0  0  0  0  0  0  0  0
   51.8907   -6.1566   -1.4888 C   0  0  0  0  0  0  0  0  0  0  0  0
   53.1378   -6.6608   -1.9620 N   0  0  0  0  0  0  0  0  0  0  0  0
   53.5517   -8.0088   -1.5490 C   0  0  0  0  0  0  0  0  0  0  0  0
   52.3976   -8.9276   -1.8225 C   0  0  0  0  0  0  0  0  0  0  0  0
   56.0060   -4.3254  -11.0491 C   0  0  0  0  0  0  0  0  0  0  0  0
   55.8694   -4.3872  -12.2190 N   0  0  0  0  0  0  0  0  0  0  0  0
   54.0815   -3.0751   -9.4411 N   0  0  0  0  0  0  0  0  0  0  0  0
   54.1483   -2.6805  -10.3857 H   0  0  0  0  0  0  0  0  0  0  0  0
   52.9136   -3.1266   -8.6563 C   0  0  0  0  0  0  0  0  0  0  0  0
   52.0848   -2.0689   -8.4999 C   0  0  0  0  0  0  0  0  0  0  0  0
   50.9143   -2.1849   -7.7366 C   0  0  0  0  0  0  0  0  0  0  0  0
   50.6216   -3.4036   -7.1431 C   0  0  0  0  0  0  0  0  0  0  0  0
   51.4553   -4.4853   -7.2931 C   0  0  0  0  0  0  0  0  0  0  0  0
   52.5958   -4.3331   -8.0497 C   0  0  0  0  0  0  0  0  0  0  0  0
   51.1566   -5.7993   -6.6789 C   0  0  0  0  0  0  0  0  0  0  0  0
   50.9444   -5.7525   -5.3311 F   0  0  0  0  0  0  0  0  0  0  0  0
   50.0049   -6.3258   -7.2653 F   0  0  0  0  0  0  0  0  0  0  0  0
   52.1948   -6.6516   -7.0080 F   0  0  0  0  0  0  0  0  0  0  0  0
 16 17  1  0  0  0
 17 18  1  0  0  0
 18 19  1  0  0  0
 19 20  1  0  0  0
 20 21  1  0  0  0
 21 22  1  0  0  0
 20  9  1  0  0  0
  9 10  2  0  0  0
 10 11  1  0  0  0
 11 12  2  0  0  0
 12  7  1  0  0  0
  7  1  1  0  0  0
  1  2  2  0  0  0
  2  3  1  0  0  0
  3  4  2  0  0  0
  4 23  1  0  0  0
 23 24  3  0  0  0
  4  5  1  0  0  0
  5 25  1  0  0  0
 25 27  1  0  0  0
 27 28  2  0  0  0
 28 29  1  0  0  0
 29 30  2  0  0  0
 30 31  1  0  0  0
 31 32  2  0  0  0
 31 33  1  0  0  0
 33 34  1  0  0  0
 33 35  1  0  0  0
 33 36  1  0  0  0
  5  6  2  0  0  0
 12 13  1  0  0  0
 13 14  2  0  0  0
 14 15  1  0  0  0
 22 17  1  0  0  0
 14  9  1  0  0  0
  6  1  1  0  0  0
 32 27  1  0  0  0
  7  8  1  0  0  0
 25 26  1  0  0  0
M  END
> <minimizedAffinity>
-9.70270

> <CNNscore>
0.4008995593

> <CNNaffinity>
7.6831178665

> <CNN_VS>
3.0801584721

> <CNNaffinity_variance>
0.1050987393

$$$$
[H]c1nc(N([H])c2c([H])c([H])c(N3C([H])([H])C([H])([H])N(C([H])([H])[H])C([H])([H])C3([H])[H])c(C([H])([H])[H])c2[H])nc(N([H])c2c([H])c([H])c([H])c(C(F)(F)F)c2[H])c1C#N


 36 39  0  0  0  0  0  0  0  0999 V2000
   51.0859   -3.2094   -7.6184 C   0  0  0  0  0  0  0  0  0  0  0  0
   50.1366   -2.4189   -7.1405 N   0  0  0  0  0  0  0  0  0  0  0  0
   49.3847   -2.6163   -6.0501 C   0  0  0  0  0  0  0  0  0  0  0  0
   49.6614   -3.8104   -5.3529 C   0  0  0  0  0  0  0  0  0  0  0  0
   50.6363   -4.6591   -5.8073 C   0  0  0  0  0  0  0  0  0  0  0  0
   51.3227   -4.3707   -6.8999 N   0  0  0  0  0  0  0  0  0  0  0  0
   51.8761   -2.9777   -8.7738 N   0  0  0  0  0  0  0  0  0  0  0  0
   51.3923   -2.5626   -9.6189 H   0  0  0  0  0  0  0  0  0  0  0  0
   55.9786   -4.0706   -9.0397 C   0  0  0  0  0  0  0  0  0  0  0  0
   55.1249   -4.1066  -10.1491 C   0  0  0  0  0  0  0  0  0  0  0  0
   53.8081   -3.7225  -10.0586 C   0  0  0  0  0  0  0  0  0  0  0  0
   53.2545   -3.2727   -8.8520 C   0  0  0  0  0  0  0  0  0  0  0  0
   54.0935   -3.2403   -7.7736 C   0  0  0  0  0  0  0  0  0  0  0  0
   55.4342   -3.6342   -7.8654 C   0  0  0  0  0  0  0  0  0  0  0  0
   56.2111   -3.6067   -6.6270 C   0  0  0  0  0  0  0  0  0  0  0  0
   60.4016   -7.0736  -10.1247 C   0  0  0  0  0  0  0  0  0  0  0  0
   59.6134   -5.9097   -9.8918 N   0  0  0  0  0  0  0  0  0  0  0  0
   59.2366   -5.7959   -8.5137 C   0  0  0  0  0  0  0  0  0  0  0  0
   58.3048   -4.6818   -8.2039 C   0  0  0  0  0  0  0  0  0  0  0  0
   57.3260   -4.4796   -9.2210 N   0  0  0  0  0  0  0  0  0  0  0  0
   57.7205   -4.6740  -10.6229 C   0  0  0  0  0  0  0  0  0  0  0  0
   58.3991   -6.0093  -10.7089 C   0  0  0  0  0  0  0  0  0  0  0  0
   48.8911   -4.1079   -4.1703 C   0  0  0  0  0  0  0  0  0  0  0  0
   48.2596   -4.3655   -3.2082 N   0  0  0  0  0  0  0  0  0  0  0  0
   50.8819   -5.8664   -5.0629 N   0  0  0  0  0  0  0  0  0  0  0  0
   50.1213   -6.5406   -4.9241 H   0  0  0  0  0  0  0  0  0  0  0  0
   52.1960   -6.0031   -4.5757 C   0  0  0  0  0  0  0  0  0  0  0  0
   53.2461   -6.3159   -5.3691 C   0  0  0  0  0  0  0  0  0  0  0  0
   54.5412   -6.4033   -4.8387 C   0  0  0  0  0  0  0  0  0  0  0  0
   54.7267   -6.1648   -3.4854 C   0  0  0  0  0  0  0  0  0  0  0  0
   53.6686   -5.8474   -2.6683 C   0  0  0  0  0  0  0  0  0  0  0  0
   52.4114   -5.7710   -3.2250 C   0  0  0  0  0  0  0  0  0  0  0  0
   53.8449   -5.5766   -1.2231 C   0  0  0  0  0  0  0  0  0  0  0  0
   52.9089   -4.7363   -0.6924 F   0  0  0  0  0  0  0  0  0  0  0  0
   53.7717   -6.7804   -0.5211 F   0  0  0  0  0  0  0  0  0  0  0  0
   55.1290   -5.0933   -1.0498 F   0  0  0  0  0  0  0  0  0  0  0  0
 16 17  1  0  0  0
 17 18  1  0  0  0
 18 19  1  0  0  0
 19 20  1  0  0  0
 20 21  1  0  0  0
 21 22  1  0  0  0
 20  9  1  0  0  0
  9 10  2  0  0  0
 10 11  1  0  0  0
 11 12  2  0  0  0
 12  7  1  0  0  0
  7  1  1  0  0  0
  1  2  2  0  0  0
  2  3  1  0  0  0
  3  4  2  0  0  0
  4 23  1  0  0  0
 23 24  3  0  0  0
  4  5  1  0  0  0
  5 25  1  0  0  0
 25 27  1  0  0  0
 27 28  2  0  0  0
 28 29  1  0  0  0
 29 30  2  0  0  0
 30 31  1  0  0  0
 31 32  2  0  0  0
 31 33  1  0  0  0
 33 34  1  0  0  0
 33 35  1  0  0  0
 33 36  1  0  0  0
  5  6  2  0  0  0
 12 13  1  0  0  0
 13 14  2  0  0  0
 14 15  1  0  0  0
 22 17  1  0  0  0
 14  9  1  0  0  0
  6  1  1  0  0  0
 32 27  1  0  0  0
  7  8  1  0  0  0
 25 26  1  0  0  0
M  END
> <minimizedAffinity>
-8.09766

> <CNNscore>
0.3795638978

> <CNNaffinity>
7.5651221275

> <CNN_VS>
2.8714473248

> <CNNaffinity_variance>
0.3507197499

$$$$
[H]c1nc(N([H])c2c([H])c([H])c(N3C([H])([H])C([H])([H])N(C([H])([H])[H])C([H])([H])C3([H])[H])c(C([H])([H])[H])c2[H])nc(N([H])c2c([H])c([H])c([H])c(C(F)(F)F)c2[H])c1C#N


 36 39  0  0  0  0  0  0  0  0999 V2000
   51.5302   -5.4984   -5.3852 C   0  0  0  0  0  0  0  0  0  0  0  0
   50.5019   -4.7322   -5.0537 N   0  0  0  0  0  0  0  0  0  0  0  0
   50.0879   -3.6151   -5.6655 C   0  0  0  0  0  0  0  0  0  0  0  0
   50.8547   -3.2403   -6.7880 C   0  0  0  0  0  0  0  0  0  0  0  0
   51.9266   -4.0027   -7.1713 C   0  0  0  0  0  0  0  0  0  0  0  0
   52.2536   -5.0908   -6.4950 N   0  0  0  0  0  0  0  0  0  0  0  0
   51.9482   -6.6831   -4.7260 N   0  0  0  0  0  0  0  0  0  0  0  0
   51.3632   -7.5532   -4.8717 H   0  0  0  0  0  0  0  0  0  0  0  0
   55.3558   -6.6978   -2.1798 C   0  0  0  0  0  0  0  0  0  0  0  0
   54.0563   -6.5357   -1.6839 C   0  0  0  0  0  0  0  0  0  0  0  0
   52.9596   -6.5626   -2.5123 C   0  0  0  0  0  0  0  0  0  0  0  0
   53.0869   -6.7568   -3.8946 C   0  0  0  0  0  0  0  0  0  0  0  0
   54.3580   -6.9141   -4.3715 C   0  0  0  0  0  0  0  0  0  0  0  0
   55.4752   -6.8839   -3.5277 C   0  0  0  0  0  0  0  0  0  0  0  0
   56.7836   -7.0078   -4.1688 C   0  0  0  0  0  0  0  0  0  0  0  0
   60.3547   -6.3210   -0.0284 C   0  0  0  0  0  0  0  0  0  0  0  0
   58.9309   -6.3420   -0.0791 N   0  0  0  0  0  0  0  0  0  0  0  0
   58.4318   -7.6644   -0.3163 C   0  0  0  0  0  0  0  0  0  0  0  0
   56.9629   -7.7587   -0.5139 C   0  0  0  0  0  0  0  0  0  0  0  0
   56.4323   -6.6620   -1.2548 N   0  0  0  0  0  0  0  0  0  0  0  0
   57.0118   -5.3281   -1.0456 C   0  0  0  0  0  0  0  0  0  0  0  0
   58.4999   -5.4684   -1.1761 C   0  0  0  0  0  0  0  0  0  0  0  0
   50.4846   -2.0431   -7.5021 C   0  0  0  0  0  0  0  0  0  0  0  0
   50.1936   -1.0566   -8.0793 N   0  0  0  0  0  0  0  0  0  0  0  0
   52.6798   -3.5795   -8.3227 N   0  0  0  0  0  0  0  0  0  0  0  0
   52.2126   -3.0538   -9.0694 H   0  0  0  0  0  0  0  0  0  0  0  0
   54.0381   -3.9501   -8.3090 C   0  0  0  0  0  0  0  0  0  0  0  0
   54.6836   -4.3390   -7.1855 C   0  0  0  0  0  0  0  0  0  0  0  0
   56.0282   -4.7336   -7.2341 C   0  0  0  0  0  0  0  0  0  0  0  0
   56.6859   -4.7169   -8.4548 C   0  0  0  0  0  0  0  0  0  0  0  0
   56.0424   -4.3231   -9.6032 C   0  0  0  0  0  0  0  0  0  0  0  0
   54.7219   -3.9422   -9.5161 C   0  0  0  0  0  0  0  0  0  0  0  0
   56.7210   -4.3092  -10.9194 C   0  0  0  0  0  0  0  0  0  0  0  0
   55.9290   -4.6956  -11.9621 F   0  0  0  0  0  0  0  0  0  0  0  0
   57.1658   -3.0144  -11.1898 F   0  0  0  0  0  0  0  0  0  0  0  0
   57.8492   -5.1013  -10.8078 F   0  0  0  0  0  0  0  0  0  0  0  0
 16 17  1  0  0  0
 17 18  1  0  0  0
 18 19  1  0  0  0
 19 20  1  0  0  0
 20 21  1  0  0  0
 21 22  1  0  0  0
 20  9  1  0  0  0
  9 10  2  0  0  0
 10 11  1  0  0  0
 11 12  2  0  0  0
 12  7  1  0  0  0
  7  1  1  0  0  0
  1  2  2  0  0  0
  2  3  1  0  0  0
  3  4  2  0  0  0
  4 23  1  0  0  0
 23 24  3  0  0  0
  4  5  1  0  0  0
  5 25  1  0  0  0
 25 27  1  0  0  0
 27 28  2  0  0  0
 28 29  1  0  0  0
 29 30  2  0  0  0
 30 31  1  0  0  0
 31 32  2  0  0  0
 31 33  1  0  0  0
 33 34  1  0  0  0
 33 35  1  0  0  0
 33 36  1  0  0  0
  5  6  2  0  0  0
 12 13  1  0  0  0
 13 14  2  0  0  0
 14 15  1  0  0  0
 22 17  1  0  0  0
 14  9  1  0  0  0
  6  1  1  0  0  0
 32 27  1  0  0  0
  7  8  1  0  0  0
 25 26  1  0  0  0
M  END
> <minimizedAffinity>
-8.54816

> <CNNscore>
0.3789184988

> <CNNaffinity>
7.4014472961

> <CNN_VS>
2.8045454025

> <CNNaffinity_variance>
0.1087264791

$$$$
[H]c1nc(N([H])c2c([H])c([H])c(N3C([H])([H])C([H])([H])N(C([H])([H])[H])C([H])([H])C3([H])[H])c(C([H])([H])[H])c2[H])nc(N([H])c2c([H])c([H])c([H])c(C(F)(F)F)c2[H])c1C#N


 36 39  0  0  0  0  0  0  0  0999 V2000
   51.0516   -2.7707   -7.4457 C   0  0  0  0  0  0  0  0  0  0  0  0
   50.0762   -2.0799   -6.8748 N   0  0  0  0  0  0  0  0  0  0  0  0
   49.3281   -2.4423   -5.8248 C   0  0  0  0  0  0  0  0  0  0  0  0
   49.6410   -3.7083   -5.2883 C   0  0  0  0  0  0  0  0  0  0  0  0
   50.6438   -4.4590   -5.8434 C   0  0  0  0  0  0  0  0  0  0  0  0
   51.3235   -4.0082   -6.8841 N   0  0  0  0  0  0  0  0  0  0  0  0
   51.8370   -2.3646   -8.5553 N   0  0  0  0  0  0  0  0  0  0  0  0
   51.4418   -1.6065   -9.1796 H   0  0  0  0  0  0  0  0  0  0  0  0
   55.5500   -4.2195   -9.4870 C   0  0  0  0  0  0  0  0  0  0  0  0
   54.4892   -4.1764  -10.4001 C   0  0  0  0  0  0  0  0  0  0  0  0
   53.3041   -3.5480  -10.0997 C   0  0  0  0  0  0  0  0  0  0  0  0
   53.0990   -2.9162   -8.8654 C   0  0  0  0  0  0  0  0  0  0  0  0
   54.1385   -2.9624   -7.9792 C   0  0  0  0  0  0  0  0  0  0  0  0
   55.3447   -3.6049   -8.2845 C   0  0  0  0  0  0  0  0  0  0  0  0
   56.3571   -3.6327   -7.2298 C   0  0  0  0  0  0  0  0  0  0  0  0
   60.7699   -5.7647   -9.8383 C   0  0  0  0  0  0  0  0  0  0  0  0
   59.3568   -5.8171  -10.0128 N   0  0  0  0  0  0  0  0  0  0  0  0
   58.9080   -4.8484  -10.9690 C   0  0  0  0  0  0  0  0  0  0  0  0
   57.4341   -4.7439  -11.1176 C   0  0  0  0  0  0  0  0  0  0  0  0
   56.7414   -4.8846   -9.8791 N   0  0  0  0  0  0  0  0  0  0  0  0
   57.2651   -5.8327   -8.8862 C   0  0  0  0  0  0  0  0  0  0  0  0
   58.7259   -5.5340   -8.7190 C   0  0  0  0  0  0  0  0  0  0  0  0
   48.8776   -4.1825   -4.1602 C   0  0  0  0  0  0  0  0  0  0  0  0
   48.2473   -4.5813   -3.2466 N   0  0  0  0  0  0  0  0  0  0  0  0
   50.9261   -5.7453   -5.2621 N   0  0  0  0  0  0  0  0  0  0  0  0
   50.3054   -6.5381   -5.4585 H   0  0  0  0  0  0  0  0  0  0  0  0
   52.0714   -5.7855   -4.4440 C   0  0  0  0  0  0  0  0  0  0  0  0
   52.0433   -5.4922   -3.1237 C   0  0  0  0  0  0  0  0  0  0  0  0
   53.2068   -5.5838   -2.3464 C   0  0  0  0  0  0  0  0  0  0  0  0
   54.3880   -5.9792   -2.9556 C   0  0  0  0  0  0  0  0  0  0  0  0
   54.4306   -6.2788   -4.2959 C   0  0  0  0  0  0  0  0  0  0  0  0
   53.2679   -6.1771   -5.0267 C   0  0  0  0  0  0  0  0  0  0  0  0
   55.6777   -6.7150   -4.9648 C   0  0  0  0  0  0  0  0  0  0  0  0
   56.1115   -7.9535   -4.5886 F   0  0  0  0  0  0  0  0  0  0  0  0
   55.4686   -6.7466   -6.3442 F   0  0  0  0  0  0  0  0  0  0  0  0
   56.6314   -5.7413   -4.7300 F   0  0  0  0  0  0  0  0  0  0  0  0
 16 17  1  0  0  0
 17 18  1  0  0  0
 18 19  1  0  0  0
 19 20  1  0  0  0
 20 21  1  0  0  0
 21 22  1  0  0  0
 20  9  1  0  0  0
  9 10  2  0  0  0
 10 11  1  0  0  0
 11 12  2  0  0  0
 12  7  1  0  0  0
  7  1  1  0  0  0
  1  2  2  0  0  0
  2  3  1  0  0  0
  3  4  2  0  0  0
  4 23  1  0  0  0
 23 24  3  0  0  0
  4  5  1  0  0  0
  5 25  1  0  0  0
 25 27  1  0  0  0
 27 28  2  0  0  0
 28 29  1  0  0  0
 29 30  2  0  0  0
 30 31  1  0  0  0
 31 32  2  0  0  0
 31 33  1  0  0  0
 33 34  1  0  0  0
 33 35  1  0  0  0
 33 36  1  0  0  0
  5  6  2  0  0  0
 12 13  1  0  0  0
 13 14  2  0  0  0
 14 15  1  0  0  0
 22 17  1  0  0  0
 14  9  1  0  0  0
  6  1  1  0  0  0
 32 27  1  0  0  0
  7  8  1  0  0  0
 25 26  1  0  0  0
M  END
> <minimizedAffinity>
-8.52364

> <CNNscore>
0.3098174632

> <CNNaffinity>
7.6762876511

> <CNN_VS>
2.3782479763

> <CNNaffinity_variance>
0.2048805654

$$$$
[H]c1nc(N([H])c2c([H])c([H])c(N3C([H])([H])C([H])([H])N(C([H])([H])[H])C([H])([H])C3([H])[H])c(C([H])([H])[H])c2[H])nc(N([H])c2c([H])c([H])c([H])c(C(F)(F)F)c2[H])c1C#N


 36 39  0  0  0  0  0  0  0  0999 V2000
   61.2624   -6.4648   -8.8442 C   0  0  0  0  0  0  0  0  0  0  0  0
   62.4323   -5.8596   -8.9837 N   0  0  0  0  0  0  0  0  0  0  0  0
   63.4887   -5.9301   -8.1636 C   0  0  0  0  0  0  0  0  0  0  0  0
   63.3021   -6.7520   -7.0330 C   0  0  0  0  0  0  0  0  0  0  0  0
   62.1098   -7.4009   -6.8468 C   0  0  0  0  0  0  0  0  0  0  0  0
   61.1257   -7.2621   -7.7188 N   0  0  0  0  0  0  0  0  0  0  0  0
   60.1571   -6.3813   -9.7297 N   0  0  0  0  0  0  0  0  0  0  0  0
   60.2500   -6.8583  -10.6702 H   0  0  0  0  0  0  0  0  0  0  0  0
   56.4641   -4.5140   -8.7444 C   0  0  0  0  0  0  0  0  0  0  0  0
   57.3345   -5.0065   -7.7642 C   0  0  0  0  0  0  0  0  0  0  0  0
   58.5394   -5.5811   -8.0924 C   0  0  0  0  0  0  0  0  0  0  0  0
   58.9587   -5.7002   -9.4246 C   0  0  0  0  0  0  0  0  0  0  0  0
   58.1041   -5.2175  -10.3758 C   0  0  0  0  0  0  0  0  0  0  0  0
   56.8756   -4.6347  -10.0413 C   0  0  0  0  0  0  0  0  0  0  0  0
   56.0280   -4.2091  -11.1542 C   0  0  0  0  0  0  0  0  0  0  0  0
   51.1495   -3.4891   -8.0644 C   0  0  0  0  0  0  0  0  0  0  0  0
   52.5519   -3.4382   -7.8182 N   0  0  0  0  0  0  0  0  0  0  0  0
   53.2334   -2.6631   -8.8126 C   0  0  0  0  0  0  0  0  0  0  0  0
   54.7148   -2.6641   -8.7081 C   0  0  0  0  0  0  0  0  0  0  0  0
   55.2415   -3.9309   -8.3191 N   0  0  0  0  0  0  0  0  0  0  0  0
   54.4853   -4.7382   -7.3521 C   0  0  0  0  0  0  0  0  0  0  0  0
   53.0711   -4.8100   -7.8481 C   0  0  0  0  0  0  0  0  0  0  0  0
   64.3867   -6.8780   -6.0907 C   0  0  0  0  0  0  0  0  0  0  0  0
   65.2679   -6.9945   -5.3155 N   0  0  0  0  0  0  0  0  0  0  0  0
   61.9660   -8.2279   -5.6773 N   0  0  0  0  0  0  0  0  0  0  0  0
   61.8261   -7.7900   -4.7603 H   0  0  0  0  0  0  0  0  0  0  0  0
   62.0399   -9.6128   -5.9204 C   0  0  0  0  0  0  0  0  0  0  0  0
   62.8602  -10.1540   -6.8501 C   0  0  0  0  0  0  0  0  0  0  0  0
   62.9221  -11.5437   -7.0263 C   0  0  0  0  0  0  0  0  0  0  0  0
   62.1261  -12.3543   -6.2311 C   0  0  0  0  0  0  0  0  0  0  0  0
   61.2878  -11.8175   -5.2840 C   0  0  0  0  0  0  0  0  0  0  0  0
   61.2540  -10.4483   -5.1401 C   0  0  0  0  0  0  0  0  0  0  0  0
   60.4382  -12.6641   -4.4154 C   0  0  0  0  0  0  0  0  0  0  0  0
   59.9536  -12.0245   -3.3110 F   0  0  0  0  0  0  0  0  0  0  0  0
   59.3421  -13.1168   -5.1509 F   0  0  0  0  0  0  0  0  0  0  0  0
   61.1801  -13.7819   -4.0798 F   0  0  0  0  0  0  0  0  0  0  0  0
 16 17  1  0  0  0
 17 18  1  0  0  0
 18 19  1  0  0  0
 19 20  1  0  0  0
 20 21  1  0  0  0
 21 22  1  0  0  0
 20  9  1  0  0  0
  9 10  2  0  0  0
 10 11  1  0  0  0
 11 12  2  0  0  0
 12  7  1  0  0  0
  7  1  1  0  0  0
  1  2  2  0  0  0
  2  3  1  0  0  0
  3  4  2  0  0  0
  4 23  1  0  0  0
 23 24  3  0  0  0
  4  5  1  0  0  0
  5 25  1  0  0  0
 25 27  1  0  0  0
 27 28  2  0  0  0
 28 29  1  0  0  0
 29 30  2  0  0  0
 30 31  1  0  0  0
 31 32  2  0  0  0
 31 33  1  0  0  0
 33 34  1  0  0  0
 33 35  1  0  0  0
 33 36  1  0  0  0
  5  6  2  0  0  0
 12 13  1  0  0  0
 13 14  2  0  0  0
 14 15  1  0  0  0
 22 17  1  0  0  0
 14  9  1  0  0  0
  6  1  1  0  0  0
 32 27  1  0  0  0
  7  8  1  0  0  0
 25 26  1  0  0  0
M  END
> <minimizedAffinity>
-7.05779

> <CNNscore>
0.2243540436

> <CNNaffinity>
5.8328714371

> <CNN_VS>
1.3086283207

> <CNNaffinity_variance>
0.0560166240

$$$$
[H]c1nc(N([H])c2c([H])c([H])c(N3C([H])([H])C([H])([H])N(C([H])([H])[H])C([H])([H])C3([H])[H])c(C([H])([H])[H])c2[H])nc(N([H])c2c([H])c([H])c([H])c(C(F)(F)F)c2[H])c1C#N


 36 39  0  0  0  0  0  0  0  0999 V2000
   61.1700   -6.4104   -9.1096 C   0  0  0  0  0  0  0  0  0  0  0  0
   62.3593   -5.8293   -9.0601 N   0  0  0  0  0  0  0  0  0  0  0  0
   63.3582   -6.0898   -8.2070 C   0  0  0  0  0  0  0  0  0  0  0  0
   63.0807   -7.1049   -7.2683 C   0  0  0  0  0  0  0  0  0  0  0  0
   61.8650   -7.7369   -7.2817 C   0  0  0  0  0  0  0  0  0  0  0  0
   60.9431   -7.4020   -8.1682 N   0  0  0  0  0  0  0  0  0  0  0  0
   60.1268   -6.1230  -10.0273 N   0  0  0  0  0  0  0  0  0  0  0  0
   60.2789   -6.3974  -11.0383 H   0  0  0  0  0  0  0  0  0  0  0  0
   56.4079   -4.4184   -8.8614 C   0  0  0  0  0  0  0  0  0  0  0  0
   57.3550   -4.8510   -7.9250 C   0  0  0  0  0  0  0  0  0  0  0  0
   58.5663   -5.3728   -8.3126 C   0  0  0  0  0  0  0  0  0  0  0  0
   58.9155   -5.4951   -9.6646 C   0  0  0  0  0  0  0  0  0  0  0  0
   57.9863   -5.0709  -10.5727 C   0  0  0  0  0  0  0  0  0  0  0  0
   56.7514   -4.5420  -10.1776 C   0  0  0  0  0  0  0  0  0  0  0  0
   55.8229   -4.1773  -11.2468 C   0  0  0  0  0  0  0  0  0  0  0  0
   51.0944   -3.6211   -7.9181 C   0  0  0  0  0  0  0  0  0  0  0  0
   52.5039   -3.5095   -7.7420 N   0  0  0  0  0  0  0  0  0  0  0  0
   53.1011   -2.7082   -8.7693 C   0  0  0  0  0  0  0  0  0  0  0  0
   54.5845   -2.6453   -8.7386 C   0  0  0  0  0  0  0  0  0  0  0  0
   55.1840   -3.8873   -8.3760 N   0  0  0  0  0  0  0  0  0  0  0  0
   54.5122   -4.7239   -7.3722 C   0  0  0  0  0  0  0  0  0  0  0  0
   53.0795   -4.8577   -7.7972 C   0  0  0  0  0  0  0  0  0  0  0  0
   64.0985   -7.4440   -6.3044 C   0  0  0  0  0  0  0  0  0  0  0  0
   64.9245   -7.7352   -5.5145 N   0  0  0  0  0  0  0  0  0  0  0  0
   61.6275   -8.7657   -6.3033 N   0  0  0  0  0  0  0  0  0  0  0  0
   61.5559   -8.5155   -5.3110 H   0  0  0  0  0  0  0  0  0  0  0  0
   61.5177  -10.0672   -6.8293 C   0  0  0  0  0  0  0  0  0  0  0  0
   60.9589  -11.0924   -6.1460 C   0  0  0  0  0  0  0  0  0  0  0  0
   60.8411  -12.3612   -6.7312 C   0  0  0  0  0  0  0  0  0  0  0  0
   61.3092  -12.5473   -8.0232 C   0  0  0  0  0  0  0  0  0  0  0  0
   61.8798  -11.5149   -8.7277 C   0  0  0  0  0  0  0  0  0  0  0  0
   61.9784  -10.2832   -8.1199 C   0  0  0  0  0  0  0  0  0  0  0  0
   62.3751  -11.6874  -10.1126 C   0  0  0  0  0  0  0  0  0  0  0  0
   62.3554  -10.5457  -10.8609 F   0  0  0  0  0  0  0  0  0  0  0  0
   63.6953  -12.1379  -10.0723 F   0  0  0  0  0  0  0  0  0  0  0  0
   61.6287  -12.6968  -10.6926 F   0  0  0  0  0  0  0  0  0  0  0  0
 16 17  1  0  0  0
 17 18  1  0  0  0
 18 19  1  0  0  0
 19 20  1  0  0  0
 20 21  1  0  0  0
 21 22  1  0  0  0
 20  9  1  0  0  0
  9 10  2  0  0  0
 10 11  1  0  0  0
 11 12  2  0  0  0
 12  7  1  0  0  0
  7  1  1  0  0  0
  1  2  2  0  0  0
  2  3  1  0  0  0
  3  4  2  0  0  0
  4 23  1  0  0  0
 23 24  3  0  0  0
  4  5  1  0  0  0
  5 25  1  0  0  0
 25 27  1  0  0  0
 27 28  2  0  0  0
 28 29  1  0  0  0
 29 30  2  0  0  0
 30 31  1  0  0  0
 31 32  2  0  0  0
 31 33  1  0  0  0
 33 34  1  0  0  0
 33 35  1  0  0  0
 33 36  1  0  0  0
  5  6  2  0  0  0
 12 13  1  0  0  0
 13 14  2  0  0  0
 14 15  1  0  0  0
 22 17  1  0  0  0
 14  9  1  0  0  0
  6  1  1  0  0  0
 32 27  1  0  0  0
  7  8  1  0  0  0
 25 26  1  0  0  0
M  END
> <minimizedAffinity>
-7.20132

> <CNNscore>
0.2117754221

> <CNNaffinity>
5.7305932045

> <CNN_VS>
1.2135988474

> <CNNaffinity_variance>
0.1462272406

$$$$
[H]O[C@@]1([H])C([H])([H])C([H])([H])[C@]2([H])[C@]1(C([H])([H])[H])C([H])([H])C([H])([H])[C@]1([H])[C@@]3(C([H])([H])[H])C([H])([H])C([H])([H])[C@@]([H])(O[H])C([H])([H])[C@@]3([H])C([H])([H])C([H])([H])[C@@]21[H]


 23 26  0  0  0  0  0  0  0  0999 V2000
   53.8626   -5.0041   -9.2719 C   0  0  0  0  0  0  0  0  0  0  0  0
   54.5781   -3.7629   -9.7518 C   0  0  0  0  0  0  0  0  0  0  0  0
   55.0325   -3.8843  -11.1394 C   0  0  0  0  0  0  0  0  0  0  0  0
   56.4909   -3.7590  -11.3922 C   0  0  0  0  0  0  0  0  0  0  0  0
   57.3998   -4.3215  -10.3719 C   0  0  0  0  0  0  0  0  0  0  0  0
   56.7017   -4.6242   -9.0429 C   0  0  0  0  0  0  0  0  0  0  0  0
   57.7887   -4.7230   -8.0233 C   0  0  0  0  0  0  0  0  0  0  0  0
   58.7156   -5.8316   -8.3622 C   0  0  0  0  0  0  0  0  0  0  0  0
   58.5977   -6.4129   -9.7079 C   0  0  0  0  0  0  0  0  0  0  0  0
   59.8952   -7.1740  -10.0113 C   0  0  0  0  0  0  0  0  0  0  0  0
   61.0515   -6.2520  -10.2330 C   0  0  0  0  0  0  0  0  0  0  0  0
   61.8963   -6.1946   -9.1009 O   0  0  0  0  0  0  0  0  0  0  0  0
   60.6739   -4.8849  -10.6972 C   0  0  0  0  0  0  0  0  0  0  0  0
   59.4504   -4.9254  -11.5480 C   0  0  0  0  0  0  0  0  0  0  0  0
   58.2432   -5.4851  -10.8183 C   0  0  0  0  0  0  0  0  0  0  0  0
   57.4951   -6.3109  -11.8762 C   0  0  0  0  0  0  0  0  0  0  0  0
   55.7978   -3.4562   -8.8719 C   0  0  0  0  0  0  0  0  0  0  0  0
   55.1992   -3.2169   -7.5689 C   0  0  0  0  0  0  0  0  0  0  0  0
   53.8799   -2.5255   -7.8918 C   0  0  0  0  0  0  0  0  0  0  0  0
   53.7420   -2.5804   -9.4084 C   0  0  0  0  0  0  0  0  0  0  0  0
   52.4118   -2.7303   -9.7906 O   0  0  0  0  0  0  0  0  0  0  0  0
   62.2254   -7.1265   -8.9736 H   0  0  0  0  0  0  0  0  0  0  0  0
   52.3640   -2.6367  -10.7555 H   0  0  0  0  0  0  0  0  0  0  0  0
  2  1  1  0  0  0
  2  3  1  0  0  0
  3  4  1  0  0  0
  4  5  1  0  0  0
  5  6  1  0  0  0
  6  7  1  0  0  0
  7  8  1  0  0  0
  8  9  1  0  0  0
  9 10  1  0  0  0
 10 11  1  0  0  0
 11 12  1  0  0  0
 11 13  1  0  0  0
 13 14  1  0  0  0
 14 15  1  0  0  0
 15 16  1  0  0  0
  6 17  1  0  0  0
 17 18  1  0  0  0
 18 19  1  0  0  0
 19 20  1  0  0  0
 20 21  1  0  0  0
 17  2  1  0  0  0
 20  2  1  0  0  0
 15  5  1  0  0  0
 15  9  1  0  0  0
 12 22  1  0  0  0
 21 23  1  0  0  0
M  END
> <minimizedAffinity>
3.98354

> <CNNscore>
0.6281989813

> <CNNaffinity>
5.4658226967

> <CNN_VS>
3.4336242676

> <CNNaffinity_variance>
0.6643749475

$$$$
[H]O[C@@]1([H])C([H])([H])C([H])([H])[C@]2([H])[C@]1(C([H])([H])[H])C([H])([H])C([H])([H])[C@]1([H])[C@@]3(C([H])([H])[H])C([H])([H])C([H])([H])[C@@]([H])(O[H])C([H])([H])[C@@]3([H])C([H])([H])C([H])([H])[C@@]21[H]


 23 26  0  0  0  0  0  0  0  0999 V2000
   56.9531   -5.9039  -11.2064 C   0  0  0  0  0  0  0  0  0  0  0  0
   57.4114   -4.8759  -10.1984 C   0  0  0  0  0  0  0  0  0  0  0  0
   57.8060   -5.4832   -8.9247 C   0  0  0  0  0  0  0  0  0  0  0  0
   57.0643   -5.0599   -7.7093 C   0  0  0  0  0  0  0  0  0  0  0  0
   55.6206   -4.7861   -7.8653 C   0  0  0  0  0  0  0  0  0  0  0  0
   55.1898   -4.6328   -9.3268 C   0  0  0  0  0  0  0  0  0  0  0  0
   53.8782   -3.9191   -9.2938 C   0  0  0  0  0  0  0  0  0  0  0  0
   52.8703   -4.7244   -8.5600 C   0  0  0  0  0  0  0  0  0  0  0  0
   53.3681   -5.8672   -7.7796 C   0  0  0  0  0  0  0  0  0  0  0  0
   52.2857   -6.2553   -6.7634 C   0  0  0  0  0  0  0  0  0  0  0  0
   52.1477   -5.2427   -5.6717 C   0  0  0  0  0  0  0  0  0  0  0  0
   51.0153   -4.4190   -5.8655 O   0  0  0  0  0  0  0  0  0  0  0  0
   53.3736   -4.4289   -5.4226 C   0  0  0  0  0  0  0  0  0  0  0  0
   54.6078   -5.2216   -5.6887 C   0  0  0  0  0  0  0  0  0  0  0  0
   54.6959   -5.7120   -7.1221 C   0  0  0  0  0  0  0  0  0  0  0  0
   55.3157   -7.1141   -7.0184 C   0  0  0  0  0  0  0  0  0  0  0  0
   56.3058   -3.8486   -9.9188 C   0  0  0  0  0  0  0  0  0  0  0  0
   56.1136   -3.2251  -11.2178 C   0  0  0  0  0  0  0  0  0  0  0  0
   57.5132   -3.1913  -11.8201 C   0  0  0  0  0  0  0  0  0  0  0  0
   58.3974   -3.9797  -10.8616 C   0  0  0  0  0  0  0  0  0  0  0  0
   59.3879   -4.6790  -11.5458 O   0  0  0  0  0  0  0  0  0  0  0  0
   50.2360   -5.0397   -5.8525 H   0  0  0  0  0  0  0  0  0  0  0  0
   59.9930   -5.0613  -10.8903 H   0  0  0  0  0  0  0  0  0  0  0  0
  2  1  1  0  0  0
  2  3  1  0  0  0
  3  4  1  0  0  0
  4  5  1  0  0  0
  5  6  1  0  0  0
  6  7  1  0  0  0
  7  8  1  0  0  0
  8  9  1  0  0  0
  9 10  1  0  0  0
 10 11  1  0  0  0
 11 12  1  0  0  0
 11 13  1  0  0  0
 13 14  1  0  0  0
 14 15  1  0  0  0
 15 16  1  0  0  0
  6 17  1  0  0  0
 17 18  1  0  0  0
 18 19  1  0  0  0
 19 20  1  0  0  0
 20 21  1  0  0  0
 17  2  1  0  0  0
 20  2  1  0  0  0
 15  5  1  0  0  0
 15  9  1  0  0  0
 12 22  1  0  0  0
 21 23  1  0  0  0
M  END
> <minimizedAffinity>
-1.76871

> <CNNscore>
0.5754111409

> <CNNaffinity>
5.7181501389

> <CNN_VS>
3.2902872562

> <CNNaffinity_variance>
0.5673420429

$$$$
[H]O[C@@]1([H])C([H])([H])C([H])([H])[C@]2([H])[C@]1(C([H])([H])[H])C([H])([H])C([H])([H])[C@]1([H])[C@@]3(C([H])([H])[H])C([H])([H])C([H])([H])[C@@]([H])(O[H])C([H])([H])[C@@]3([H])C([H])([H])C([H])([H])[C@@]21[H]


 23 26  0  0  0  0  0  0  0  0999 V2000
   60.5930   -9.2004   -0.9221 C   0  0  0  0  0  0  0  0  0  0  0  0
   59.6420   -9.8719   -1.8852 C   0  0  0  0  0  0  0  0  0  0  0  0
   60.0581  -11.2370   -2.2170 C   0  0  0  0  0  0  0  0  0  0  0  0
   60.3297  -11.5382   -3.6460 C   0  0  0  0  0  0  0  0  0  0  0  0
   60.9539  -10.4677   -4.4508 C   0  0  0  0  0  0  0  0  0  0  0  0
   60.8932   -9.0934   -3.7780 C   0  0  0  0  0  0  0  0  0  0  0  0
   61.1162   -8.0950   -4.8664 C   0  0  0  0  0  0  0  0  0  0  0  0
   62.4535   -8.2898   -5.4799 C   0  0  0  0  0  0  0  0  0  0  0  0
   63.1652   -9.5336   -5.1493 C   0  0  0  0  0  0  0  0  0  0  0  0
   64.2550   -9.7522   -6.2073 C   0  0  0  0  0  0  0  0  0  0  0  0
   63.6834  -10.1318   -7.5360 C   0  0  0  0  0  0  0  0  0  0  0  0
   63.6818   -9.0395   -8.4335 O   0  0  0  0  0  0  0  0  0  0  0  0
   62.3414  -10.7815   -7.4707 C   0  0  0  0  0  0  0  0  0  0  0  0
   62.1958  -11.5894   -6.2263 C   0  0  0  0  0  0  0  0  0  0  0  0
   62.3382  -10.7590   -4.9641 C   0  0  0  0  0  0  0  0  0  0  0  0
   63.0912  -11.6682   -3.9807 C   0  0  0  0  0  0  0  0  0  0  0  0
   59.5272   -9.0738   -3.1912 C   0  0  0  0  0  0  0  0  0  0  0  0
   58.9739   -7.8064   -2.7431 C   0  0  0  0  0  0  0  0  0  0  0  0
   58.0307   -8.1965   -1.6114 C   0  0  0  0  0  0  0  0  0  0  0  0
   58.2554   -9.6855   -1.3776 C   0  0  0  0  0  0  0  0  0  0  0  0
   58.1250  -10.0117   -0.0304 O   0  0  0  0  0  0  0  0  0  0  0  0
   64.6397   -8.7855   -8.5367 H   0  0  0  0  0  0  0  0  0  0  0  0
   58.1544  -10.9785    0.0488 H   0  0  0  0  0  0  0  0  0  0  0  0
  2  1  1  0  0  0
  2  3  1  0  0  0
  3  4  1  0  0  0
  4  5  1  0  0  0
  5  6  1  0  0  0
  6  7  1  0  0  0
  7  8  1  0  0  0
  8  9  1  0  0  0
  9 10  1  0  0  0
 10 11  1  0  0  0
 11 12  1  0  0  0
 11 13  1  0  0  0
 13 14  1  0  0  0
 14 15  1  0  0  0
 15 16  1  0  0  0
  6 17  1  0  0  0
 17 18  1  0  0  0
 18 19  1  0  0  0
 19 20  1  0  0  0
 20 21  1  0  0  0
 17  2  1  0  0  0
 20  2  1  0  0  0
 15  5  1  0  0  0
 15  9  1  0  0  0
 12 22  1  0  0  0
 21 23  1  0  0  0
M  END
> <minimizedAffinity>
-2.99583

> <CNNscore>
0.5677924156

> <CNNaffinity>
4.3682346344

> <CNN_VS>
2.4802505970

> <CNNaffinity_variance>
0.2632746100

$$$$
[H]O[C@@]1([H])C([H])([H])C([H])([H])[C@]2([H])[C@]1(C([H])([H])[H])C([H])([H])C([H])([H])[C@]1([H])[C@@]3(C([H])([H])[H])C([H])([H])C([H])([H])[C@@]([H])(O[H])C([H])([H])[C@@]3([H])C([H])([H])C([H])([H])[C@@]21[H]


 23 26  0  0  0  0  0  0  0  0999 V2000
   60.4711   -8.2751   -9.9866 C   0  0  0  0  0  0  0  0  0  0  0  0
   61.9118   -7.8214  -10.0220 C   0  0  0  0  0  0  0  0  0  0  0  0
   62.7198   -8.6078  -10.9575 C   0  0  0  0  0  0  0  0  0  0  0  0
   63.8824   -9.3458  -10.4002 C   0  0  0  0  0  0  0  0  0  0  0  0
   63.7249   -9.9252   -9.0501 C   0  0  0  0  0  0  0  0  0  0  0  0
   62.5177   -9.3673   -8.2908 C   0  0  0  0  0  0  0  0  0  0  0  0
   62.7643   -9.6726   -6.8496 C   0  0  0  0  0  0  0  0  0  0  0  0
   62.8495  -11.1394   -6.6396 C   0  0  0  0  0  0  0  0  0  0  0  0
   62.9737  -11.9799   -7.8400 C   0  0  0  0  0  0  0  0  0  0  0  0
   63.5062  -13.3519   -7.4056 C   0  0  0  0  0  0  0  0  0  0  0  0
   64.9405  -13.2936   -6.9865 C   0  0  0  0  0  0  0  0  0  0  0  0
   65.0732  -13.3132   -5.5792 O   0  0  0  0  0  0  0  0  0  0  0  0
   65.7169  -12.1700   -7.5884 C   0  0  0  0  0  0  0  0  0  0  0  0
   65.2229  -11.8489   -8.9578 C   0  0  0  0  0  0  0  0  0  0  0  0
   63.7651  -11.4277   -8.9751 C   0  0  0  0  0  0  0  0  0  0  0  0
   63.1960  -12.0411  -10.2637 C   0  0  0  0  0  0  0  0  0  0  0  0
   62.5540   -7.9205   -8.6314 C   0  0  0  0  0  0  0  0  0  0  0  0
   61.7564   -6.9941   -7.8448 C   0  0  0  0  0  0  0  0  0  0  0  0
   61.4269   -5.8715   -8.8216 C   0  0  0  0  0  0  0  0  0  0  0  0
   61.9309   -6.3416  -10.1806 C   0  0  0  0  0  0  0  0  0  0  0  0
   61.1035   -5.8979  -11.2085 O   0  0  0  0  0  0  0  0  0  0  0  0
   64.6709  -14.1782   -5.2915 H   0  0  0  0  0  0  0  0  0  0  0  0
   61.5298   -6.1161  -12.0527 H   0  0  0  0  0  0  0  0  0  0  0  0
  2  1  1  0  0  0
  2  3  1  0  0  0
  3  4  1  0  0  0
  4  5  1  0  0  0
  5  6  1  0  0  0
  6  7  1  0  0  0
  7  8  1  0  0  0
  8  9  1  0  0  0
  9 10  1  0  0  0
 10 11  1  0  0  0
 11 12  1  0  0  0
 11 13  1  0  0  0
 13 14  1  0  0  0
 14 15  1  0  0  0
 15 16  1  0  0  0
  6 17  1  0  0  0
 17 18  1  0  0  0
 18 19  1  0  0  0
 19 20  1  0  0  0
 20 21  1  0  0  0
 17  2  1  0  0  0
 20  2  1  0  0  0
 15  5  1  0  0  0
 15  9  1  0  0  0
 12 22  1  0  0  0
 21 23  1  0  0  0
M  END
> <minimizedAffinity>
-2.12000

> <CNNscore>
0.5622168779

> <CNNaffinity>
4.0609574318

> <CNN_VS>
2.2831387520

> <CNNaffinity_variance>
0.0811248198

$$$$
[H]O[C@@]1([H])C([H])([H])C([H])([H])[C@]2([H])[C@]1(C([H])([H])[H])C([H])([H])C([H])([H])[C@]1([H])[C@@]3(C([H])([H])[H])C([H])([H])C([H])([H])[C@@]([H])(O[H])C([H])([H])[C@@]3([H])C([H])([H])C([H])([H])[C@@]21[H]


 23 26  0  0  0  0  0  0  0  0999 V2000
   62.9742   -8.1448  -11.5977 C   0  0  0  0  0  0  0  0  0  0  0  0
   64.2237   -8.6651  -10.9265 C   0  0  0  0  0  0  0  0  0  0  0  0
   64.3980  -10.1074  -11.1166 C   0  0  0  0  0  0  0  0  0  0  0  0
   64.4469  -10.9545   -9.8974 C   0  0  0  0  0  0  0  0  0  0  0  0
   63.5758  -10.5603   -8.7708 C   0  0  0  0  0  0  0  0  0  0  0  0
   63.0279   -9.1362   -8.9011 C   0  0  0  0  0  0  0  0  0  0  0  0
   62.5887   -8.7400   -7.5296 C   0  0  0  0  0  0  0  0  0  0  0  0
   61.5142   -9.6445   -7.0498 C   0  0  0  0  0  0  0  0  0  0  0  0
   61.2860  -10.8772   -7.8187 C   0  0  0  0  0  0  0  0  0  0  0  0
   60.5050  -11.8536   -6.9290 C   0  0  0  0  0  0  0  0  0  0  0  0
   61.3440  -12.3988   -5.8177 C   0  0  0  0  0  0  0  0  0  0  0  0
   61.0509  -11.7687   -4.5865 O   0  0  0  0  0  0  0  0  0  0  0  0
   62.8112  -12.3981   -6.0910 C   0  0  0  0  0  0  0  0  0  0  0  0
   63.0876  -12.6100   -7.5405 C   0  0  0  0  0  0  0  0  0  0  0  0
   62.4814  -11.5320   -8.4201 C   0  0  0  0  0  0  0  0  0  0  0  0
   62.0052  -12.2752   -9.6777 C   0  0  0  0  0  0  0  0  0  0  0  0
   64.1980   -8.3789   -9.4186 C   0  0  0  0  0  0  0  0  0  0  0  0
   64.1712   -6.9263   -9.3700 C   0  0  0  0  0  0  0  0  0  0  0  0
   65.0370   -6.5028  -10.5505 C   0  0  0  0  0  0  0  0  0  0  0  0
   65.3604   -7.7839  -11.3097 C   0  0  0  0  0  0  0  0  0  0  0  0
   65.4283   -7.5560  -12.6814 O   0  0  0  0  0  0  0  0  0  0  0  0
   60.0898  -11.9672   -4.4144 H   0  0  0  0  0  0  0  0  0  0  0  0
   65.7547   -8.3662  -13.1047 H   0  0  0  0  0  0  0  0  0  0  0  0
  2  1  1  0  0  0
  2  3  1  0  0  0
  3  4  1  0  0  0
  4  5  1  0  0  0
  5  6  1  0  0  0
  6  7  1  0  0  0
  7  8  1  0  0  0
  8  9  1  0  0  0
  9 10  1  0  0  0
 10 11  1  0  0  0
 11 12  1  0  0  0
 11 13  1  0  0  0
 13 14  1  0  0  0
 14 15  1  0  0  0
 15 16  1  0  0  0
  6 17  1  0  0  0
 17 18  1  0  0  0
 18 19  1  0  0  0
 19 20  1  0  0  0
 20 21  1  0  0  0
 17  2  1  0  0  0
 20  2  1  0  0  0
 15  5  1  0  0  0
 15  9  1  0  0  0
 12 22  1  0  0  0
 21 23  1  0  0  0
M  END
> <minimizedAffinity>
-2.88318

> <CNNscore>
0.5490926504

> <CNNaffinity>
4.0064229965

> <CNN_VS>
2.1998975277

> <CNNaffinity_variance>
0.0836802348

$$$$
[H]O[C@@]1([H])C([H])([H])C([H])([H])[C@]2([H])[C@]1(C([H])([H])[H])C([H])([H])C([H])([H])[C@]1([H])[C@@]3(C([H])([H])[H])C([H])([H])C([H])([H])[C@@]([H])(O[H])C([H])([H])[C@@]3([H])C([H])([H])C([H])([H])[C@@]21[H]


 23 26  0  0  0  0  0  0  0  0999 V2000
   61.7203   -6.8887   -8.6335 C   0  0  0  0  0  0  0  0  0  0  0  0
   62.3659   -7.9372   -9.5090 C   0  0  0  0  0  0  0  0  0  0  0  0
   61.5248   -9.1267   -9.6647 C   0  0  0  0  0  0  0  0  0  0  0  0
   62.0864  -10.4232   -9.2060 C   0  0  0  0  0  0  0  0  0  0  0  0
   62.9362  -10.3965   -7.9974 C   0  0  0  0  0  0  0  0  0  0  0  0
   63.3987   -8.9874   -7.6157 C   0  0  0  0  0  0  0  0  0  0  0  0
   64.5754   -9.1733   -6.7147 C   0  0  0  0  0  0  0  0  0  0  0  0
   64.1777   -9.9146   -5.4919 C   0  0  0  0  0  0  0  0  0  0  0  0
   62.8583  -10.5642   -5.5042 C   0  0  0  0  0  0  0  0  0  0  0  0
   62.8412  -11.6244   -4.3950 C   0  0  0  0  0  0  0  0  0  0  0  0
   63.7060  -12.7992   -4.7238 C   0  0  0  0  0  0  0  0  0  0  0  0
   64.9331  -12.7548   -4.0232 O   0  0  0  0  0  0  0  0  0  0  0  0
   63.9232  -13.0195   -6.1838 C   0  0  0  0  0  0  0  0  0  0  0  0
   62.7298  -12.6015   -6.9734 C   0  0  0  0  0  0  0  0  0  0  0  0
   62.3943  -11.1315   -6.8013 C   0  0  0  0  0  0  0  0  0  0  0  0
   60.8587  -11.0792   -6.7941 C   0  0  0  0  0  0  0  0  0  0  0  0
   63.7190   -8.3775   -8.9333 C   0  0  0  0  0  0  0  0  0  0  0  0
   64.4953   -7.1490   -8.9678 C   0  0  0  0  0  0  0  0  0  0  0  0
   64.0200   -6.4491  -10.2355 C   0  0  0  0  0  0  0  0  0  0  0  0
   62.8479   -7.2748  -10.7517 C   0  0  0  0  0  0  0  0  0  0  0  0
   61.8807   -6.4665  -11.3427 O   0  0  0  0  0  0  0  0  0  0  0  0
   64.6837  -12.7769   -3.0589 H   0  0  0  0  0  0  0  0  0  0  0  0
   61.2215   -7.0435  -11.7605 H   0  0  0  0  0  0  0  0  0  0  0  0
  2  1  1  0  0  0
  2  3  1  0  0  0
  3  4  1  0  0  0
  4  5  1  0  0  0
  5  6  1  0  0  0
  6  7  1  0  0  0
  7  8  1  0  0  0
  8  9  1  0  0  0
  9 10  1  0  0  0
 10 11  1  0  0  0
 11 12  1  0  0  0
 11 13  1  0  0  0
 13 14  1  0  0  0
 14 15  1  0  0  0
 15 16  1  0  0  0
  6 17  1  0  0  0
 17 18  1  0  0  0
 18 19  1  0  0  0
 19 20  1  0  0  0
 20 21  1  0  0  0
 17  2  1  0  0  0
 20  2  1  0  0  0
 15  5  1  0  0  0
 15  9  1  0  0  0
 12 22  1  0  0  0
 21 23  1  0  0  0
M  END
> <minimizedAffinity>
-2.98840

> <CNNscore>
0.5408951640

> <CNNaffinity>
4.1143903732

> <CNN_VS>
2.2254538536

> <CNNaffinity_variance>
0.0476484150

$$$$
[H]O[C@@]1([H])C([H])([H])C([H])([H])[C@]2([H])[C@]1(C([H])([H])[H])C([H])([H])C([H])([H])[C@]1([H])[C@@]3(C([H])([H])[H])C([H])([H])C([H])([H])[C@@]([H])(O[H])C([H])([H])[C@@]3([H])C([H])([H])C([H])([H])[C@@]21[H]


 23 26  0  0  0  0  0  0  0  0999 V2000
   65.1081   -6.1852  -10.6047 C   0  0  0  0  0  0  0  0  0  0  0  0
   64.0957   -7.0156  -11.3584 C   0  0  0  0  0  0  0  0  0  0  0  0
   62.7449   -6.8816  -10.8070 C   0  0  0  0  0  0  0  0  0  0  0  0
   62.0854   -8.1170  -10.3115 C   0  0  0  0  0  0  0  0  0  0  0  0
   62.9473   -9.1194   -9.6514 C   0  0  0  0  0  0  0  0  0  0  0  0
   64.4406   -8.8904   -9.9022 C   0  0  0  0  0  0  0  0  0  0  0  0
   65.1111  -10.1886   -9.5923 C   0  0  0  0  0  0  0  0  0  0  0  0
   64.8959  -10.5545   -8.1701 C   0  0  0  0  0  0  0  0  0  0  0  0
   63.8783   -9.7922   -7.4309 C   0  0  0  0  0  0  0  0  0  0  0  0
   63.4892  -10.6024   -6.1871 C   0  0  0  0  0  0  0  0  0  0  0  0
   62.6931  -11.8201   -6.5332 C   0  0  0  0  0  0  0  0  0  0  0  0
   63.4829  -12.9913   -6.4790 O   0  0  0  0  0  0  0  0  0  0  0  0
   61.9485  -11.7277   -7.8232 C   0  0  0  0  0  0  0  0  0  0  0  0
   61.5116  -10.3280   -8.0923 C   0  0  0  0  0  0  0  0  0  0  0  0
   62.6732   -9.3565   -8.1909 C   0  0  0  0  0  0  0  0  0  0  0  0
   62.1624   -8.0677   -7.5283 C   0  0  0  0  0  0  0  0  0  0  0  0
   64.4781   -8.5020  -11.3369 C   0  0  0  0  0  0  0  0  0  0  0  0
   65.7537   -8.5134  -12.0339 C   0  0  0  0  0  0  0  0  0  0  0  0
   65.5985   -7.4378  -13.1024 C   0  0  0  0  0  0  0  0  0  0  0  0
   64.2679   -6.7536  -12.8134 C   0  0  0  0  0  0  0  0  0  0  0  0
   64.3210   -5.3956  -13.1150 O   0  0  0  0  0  0  0  0  0  0  0  0
   63.7985  -13.0495   -5.5357 H   0  0  0  0  0  0  0  0  0  0  0  0
   63.4242   -5.0341  -13.0318 H   0  0  0  0  0  0  0  0  0  0  0  0
  2  1  1  0  0  0
  2  3  1  0  0  0
  3  4  1  0  0  0
  4  5  1  0  0  0
  5  6  1  0  0  0
  6  7  1  0  0  0
  7  8  1  0  0  0
  8  9  1  0  0  0
  9 10  1  0  0  0
 10 11  1  0  0  0
 11 12  1  0  0  0
 11 13  1  0  0  0
 13 14  1  0  0  0
 14 15  1  0  0  0
 15 16  1  0  0  0
  6 17  1  0  0  0
 17 18  1  0  0  0
 18 19  1  0  0  0
 19 20  1  0  0  0
 20 21  1  0  0  0
 17  2  1  0  0  0
 20  2  1  0  0  0
 15  5  1  0  0  0
 15  9  1  0  0  0
 12 22  1  0  0  0
 21 23  1  0  0  0
M  END
> <minimizedAffinity>
-2.31992

> <CNNscore>
0.5349189043

> <CNNaffinity>
3.9721755981

> <CNN_VS>
2.1247918606

> <CNNaffinity_variance>
0.0307101253

$$$$
[H]O[C@@]1([H])C([H])([H])C([H])([H])[C@]2([H])[C@]1(C([H])([H])[H])C([H])([H])C([H])([H])[C@]1([H])[C@@]3(C([H])([H])[H])C([H])([H])C([H])([H])[C@@]([H])(O[H])C([H])([H])[C@@]3([H])C([H])([H])C([H])([H])[C@@]21[H]


 23 26  0  0  0  0  0  0  0  0999 V2000
   62.5500   -6.1930   -8.5255 C   0  0  0  0  0  0  0  0  0  0  0  0
   63.7990   -6.9797   -8.2032 C   0  0  0  0  0  0  0  0  0  0  0  0
   63.6622   -8.4006   -8.5334 C   0  0  0  0  0  0  0  0  0  0  0  0
   63.8184   -9.3761   -7.4241 C   0  0  0  0  0  0  0  0  0  0  0  0
   63.2984   -8.9760   -6.1001 C   0  0  0  0  0  0  0  0  0  0  0  0
   63.0042   -7.4768   -5.9951 C   0  0  0  0  0  0  0  0  0  0  0  0
   62.9519   -7.1717   -4.5339 C   0  0  0  0  0  0  0  0  0  0  0  0
   61.8602   -7.9396   -3.8846 C   0  0  0  0  0  0  0  0  0  0  0  0
   61.2504   -9.0252   -4.6672 C   0  0  0  0  0  0  0  0  0  0  0  0
   60.5158   -9.9568   -3.6940 C   0  0  0  0  0  0  0  0  0  0  0  0
   61.4616  -10.7514   -2.8511 C   0  0  0  0  0  0  0  0  0  0  0  0
   61.5616  -10.2247   -1.5430 O   0  0  0  0  0  0  0  0  0  0  0  0
   62.8098  -10.9561   -3.4574 C   0  0  0  0  0  0  0  0  0  0  0  0
   62.7227  -11.0455   -4.9430 C   0  0  0  0  0  0  0  0  0  0  0  0
   62.1476   -9.7920   -5.5763 C   0  0  0  0  0  0  0  0  0  0  0  0
   61.2833  -10.3028   -6.7394 C   0  0  0  0  0  0  0  0  0  0  0  0
   64.1526   -6.8644   -6.7140 C   0  0  0  0  0  0  0  0  0  0  0  0
   64.4021   -5.4412   -6.5545 C   0  0  0  0  0  0  0  0  0  0  0  0
   65.0544   -5.0327   -7.8700 C   0  0  0  0  0  0  0  0  0  0  0  0
   64.9668   -6.2556   -8.7749 C   0  0  0  0  0  0  0  0  0  0  0  0
   64.7768   -5.8889  -10.1044 O   0  0  0  0  0  0  0  0  0  0  0  0
   60.6408  -10.2840   -1.1670 H   0  0  0  0  0  0  0  0  0  0  0  0
   64.8506   -6.6882  -10.6500 H   0  0  0  0  0  0  0  0  0  0  0  0
  2  1  1  0  0  0
  2  3  1  0  0  0
  3  4  1  0  0  0
  4  5  1  0  0  0
  5  6  1  0  0  0
  6  7  1  0  0  0
  7  8  1  0  0  0
  8  9  1  0  0  0
  9 10  1  0  0  0
 10 11  1  0  0  0
 11 12  1  0  0  0
 11 13  1  0  0  0
 13 14  1  0  0  0
 14 15  1  0  0  0
 15 16  1  0  0  0
  6 17  1  0  0  0
 17 18  1  0  0  0
 18 19  1  0  0  0
 19 20  1  0  0  0
 20 21  1  0  0  0
 17  2  1  0  0  0
 20  2  1  0  0  0
 15  5  1  0  0  0
 15  9  1  0  0  0
 12 22  1  0  0  0
 21 23  1  0  0  0
M  END
> <minimizedAffinity>
-3.31495

> <CNNscore>
0.5267297029

> <CNNaffinity>
4.0597400665

> <CNN_VS>
2.1383857727

> <CNNaffinity_variance>
0.0954975635

$$$$
[H]O[C@@]1([H])C([H])([H])C([H])([H])[C@]2([H])[C@]1(C([H])([H])[H])C([H])([H])C([H])([H])[C@]1([H])[C@@]3(C([H])([H])[H])C([H])([H])C([H])([H])[C@@]([H])(O[H])C([H])([H])[C@@]3([H])C([H])([H])C([H])([H])[C@@]21[H]


 23 26  0  0  0  0  0  0  0  0999 V2000
   64.0427  -11.9966   -9.1134 C   0  0  0  0  0  0  0  0  0  0  0  0
   62.7500  -11.2721   -9.4079 C   0  0  0  0  0  0  0  0  0  0  0  0
   62.8766   -9.8212   -9.2483 C   0  0  0  0  0  0  0  0  0  0  0  0
   61.9946   -9.1661   -8.2485 C   0  0  0  0  0  0  0  0  0  0  0  0
   61.7055   -9.9211   -7.0116 C   0  0  0  0  0  0  0  0  0  0  0  0
   62.0668  -11.4058   -7.1124 C   0  0  0  0  0  0  0  0  0  0  0  0
   61.3084  -12.0863   -6.0202 C   0  0  0  0  0  0  0  0  0  0  0  0
   61.7265  -11.5613   -4.6964 C   0  0  0  0  0  0  0  0  0  0  0  0
   62.5367  -10.3339   -4.6903 C   0  0  0  0  0  0  0  0  0  0  0  0
   62.4597   -9.7216   -3.2853 C   0  0  0  0  0  0  0  0  0  0  0  0
   61.1131   -9.1388   -2.9968 C   0  0  0  0  0  0  0  0  0  0  0  0
   60.3462   -9.9863   -2.1649 O   0  0  0  0  0  0  0  0  0  0  0  0
   60.3437   -8.7271   -4.2075 C   0  0  0  0  0  0  0  0  0  0  0  0
   61.2552   -8.2539   -5.2881 C   0  0  0  0  0  0  0  0  0  0  0  0
   62.2375   -9.3191   -5.7392 C   0  0  0  0  0  0  0  0  0  0  0  0
   63.5423   -8.5561   -6.0153 C   0  0  0  0  0  0  0  0  0  0  0  0
   61.6236  -11.7604   -8.4866 C   0  0  0  0  0  0  0  0  0  0  0  0
   61.5040  -13.1641   -8.8452 C   0  0  0  0  0  0  0  0  0  0  0  0
   61.7799  -13.1855  -10.3439 C   0  0  0  0  0  0  0  0  0  0  0  0
   62.2204  -11.7723  -10.7058 C   0  0  0  0  0  0  0  0  0  0  0  0
   63.1816  -11.7839  -11.7128 O   0  0  0  0  0  0  0  0  0  0  0  0
   60.8692  -10.0655   -1.3205 H   0  0  0  0  0  0  0  0  0  0  0  0
   63.3370  -10.8670  -11.9904 H   0  0  0  0  0  0  0  0  0  0  0  0
  2  1  1  0  0  0
  2  3  1  0  0  0
  3  4  1  0  0  0
  4  5  1  0  0  0
  5  6  1  0  0  0
  6  7  1  0  0  0
  7  8  1  0  0  0
  8  9  1  0  0  0
  9 10  1  0  0  0
 10 11  1  0  0  0
 11 12  1  0  0  0
 11 13  1  0  0  0
 13 14  1  0  0  0
 14 15  1  0  0  0
 15 16  1  0  0  0
  6 17  1  0  0  0
 17 18  1  0  0  0
 18 19  1  0  0  0
 19 20  1  0  0  0
 20 21  1  0  0  0
 17  2  1  0  0  0
 20  2  1  0  0  0
 15  5  1  0  0  0
 15  9  1  0  0  0
 12 22  1  0  0  0
 21 23  1  0  0  0
M  END
> <minimizedAffinity>
-3.33957

> <CNNscore>
0.5167592764

> <CNNaffinity>
4.2027177811

> <CNN_VS>
2.1717934608

> <CNNaffinity_variance>
0.0907640830

$$$$
[H]c1nc(N([H])[H])c2c(-c3c([H])c([H])c([H])c(C(F)(F)F)c3[H])nc([C@]3([H])C([H])([H])[C@@]4(C([H])([H])N(C(=O)C#CC([H])([H])[H])C([H])([H])C4([H])[H])C3([H])[H])n2c1[H]


 35 39  0  0  0  0  0  0  0  0999 V2000
   60.4071   -6.4730   -9.2398 C   0  0  0  0  0  0  0  0  0  0  0  0
   60.8292   -6.2537  -10.4789 N   0  0  0  0  0  0  0  0  0  0  0  0
   62.0580   -6.8365  -10.6628 C   0  0  0  0  0  0  0  0  0  0  0  0
   62.3539   -7.4222   -9.4616 C   0  0  0  0  0  0  0  0  0  0  0  0
   63.4302   -8.1833   -9.0012 C   0  0  0  0  0  0  0  0  0  0  0  0
   64.4882   -8.4515   -9.9046 N   0  0  0  0  0  0  0  0  0  0  0  0
   63.4829   -8.6844   -7.7322 N   0  0  0  0  0  0  0  0  0  0  0  0
   62.4686   -8.4363   -6.9091 C   0  0  0  0  0  0  0  0  0  0  0  0
   61.3927   -7.6946   -7.3201 C   0  0  0  0  0  0  0  0  0  0  0  0
   61.3454   -7.2038   -8.5775 N   0  0  0  0  0  0  0  0  0  0  0  0
   64.3616   -9.1585  -10.6434 H   0  0  0  0  0  0  0  0  0  0  0  0
   65.3727   -7.9369   -9.8169 H   0  0  0  0  0  0  0  0  0  0  0  0
   54.0654   -4.7353   -9.3480 C   0  0  0  0  0  0  0  0  0  0  0  0
   53.3200   -4.6681  -10.3562 O   0  0  0  0  0  0  0  0  0  0  0  0
   55.4608   -4.5804   -9.4239 N   0  0  0  0  0  0  0  0  0  0  0  0
   56.1941   -4.3163  -10.6841 C   0  0  0  0  0  0  0  0  0  0  0  0
   57.4729   -3.6501  -10.1365 C   0  0  0  0  0  0  0  0  0  0  0  0
   57.7221   -4.6485   -9.0318 C   0  0  0  0  0  0  0  0  0  0  0  0
   58.9713   -4.6095   -8.2743 C   0  0  0  0  0  0  0  0  0  0  0  0
   59.1545   -6.0726   -8.5419 C   0  0  0  0  0  0  0  0  0  0  0  0
   58.0502   -5.9992   -9.6192 C   0  0  0  0  0  0  0  0  0  0  0  0
   56.3948   -4.6478   -8.3245 C   0  0  0  0  0  0  0  0  0  0  0  0
   52.1340   -5.3974   -5.7559 C   0  0  0  0  0  0  0  0  0  0  0  0
   52.8510   -5.1691   -7.0251 C   0  0  0  0  0  0  0  0  0  0  0  0
   53.4252   -4.9797   -8.0919 C   0  0  0  0  0  0  0  0  0  0  0  0
   62.8205   -6.8490  -11.8987 C   0  0  0  0  0  0  0  0  0  0  0  0
   63.0816   -8.1010  -12.4762 C   0  0  0  0  0  0  0  0  0  0  0  0
   63.7294   -8.2386  -13.6634 C   0  0  0  0  0  0  0  0  0  0  0  0
   64.1463   -7.1263  -14.3288 C   0  0  0  0  0  0  0  0  0  0  0  0
   63.9052   -5.8692  -13.7922 C   0  0  0  0  0  0  0  0  0  0  0  0
   63.2502   -5.7542  -12.5918 C   0  0  0  0  0  0  0  0  0  0  0  0
   64.3675   -4.6928  -14.5636 C   0  0  0  0  0  0  0  0  0  0  0  0
   63.8743   -4.7919  -15.8531 F   0  0  0  0  0  0  0  0  0  0  0  0
   64.0128   -3.4936  -13.9725 F   0  0  0  0  0  0  0  0  0  0  0  0
   65.7519   -4.7578  -14.6519 F   0  0  0  0  0  0  0  0  0  0  0  0
 23 24  1  0  0  0
 24 25  3  0  0  0
 25 13  1  0  0  0
 13 14  2  0  0  0
 13 15  1  0  0  0
 15 16  1  0  0  0
 16 17  1  0  0  0
 18 17  1  0  0  0
 18 19  1  0  0  0
 19 20  1  0  0  0
 20 21  1  0  0  0
 20  1  1  0  0  0
  1  2  2  0  0  0
  2  3  1  0  0  0
  3 26  1  0  0  0
 26 27  2  0  0  0
 27 28  1  0  0  0
 28 29  2  0  0  0
 29 30  1  0  0  0
 30 31  2  0  0  0
 30 32  1  0  0  0
 32 33  1  0  0  0
 32 34  1  0  0  0
 32 35  1  0  0  0
  3  4  2  0  0  0
  4  5  1  0  0  0
  5  6  1  0  0  0
  5  7  2  0  0  0
  7  8  1  0  0  0
  8  9  2  0  0  0
  9 10  1  0  0  0
 18 22  1  0  0  0
 22 15  1  0  0  0
 21 18  1  0  0  0
 10  1  1  0  0  0
 31 26  1  0  0  0
 10  4  1  0  0  0
  6 11  1  0  0  0
  6 12  1  0  0  0
M  END
> <minimizedAffinity>
-2.44090

> <CNNscore>
0.3207505941

> <CNNaffinity>
6.0116043091

> <CNN_VS>
1.9282256365

> <CNNaffinity_variance>
0.5601485968

$$$$
[H]c1nc(N([H])[H])c2c(-c3c([H])c([H])c([H])c(C(F)(F)F)c3[H])nc([C@]3([H])C([H])([H])[C@@]4(C([H])([H])N(C(=O)C#CC([H])([H])[H])C([H])([H])C4([H])[H])C3([H])[H])n2c1[H]


 35 39  0  0  0  0  0  0  0  0999 V2000
   58.0490   -5.3974   -9.2860 C   0  0  0  0  0  0  0  0  0  0  0  0
   59.2308   -6.0009   -9.3139 N   0  0  0  0  0  0  0  0  0  0  0  0
   59.8833   -5.6942  -10.4817 C   0  0  0  0  0  0  0  0  0  0  0  0
   59.0265   -4.8686  -11.1581 C   0  0  0  0  0  0  0  0  0  0  0  0
   59.1006   -4.1978  -12.3805 C   0  0  0  0  0  0  0  0  0  0  0  0
   60.2788   -4.3521  -13.1521 N   0  0  0  0  0  0  0  0  0  0  0  0
   58.0949   -3.3953  -12.8374 N   0  0  0  0  0  0  0  0  0  0  0  0
   57.0076   -3.2500  -12.0860 C   0  0  0  0  0  0  0  0  0  0  0  0
   56.8939   -3.8894  -10.8799 C   0  0  0  0  0  0  0  0  0  0  0  0
   57.8934   -4.6799  -10.4323 N   0  0  0  0  0  0  0  0  0  0  0  0
   61.1379   -3.8540  -12.8772 H   0  0  0  0  0  0  0  0  0  0  0  0
   60.2674   -4.9616  -13.9787 H   0  0  0  0  0  0  0  0  0  0  0  0
   51.8593   -4.1486   -7.4486 C   0  0  0  0  0  0  0  0  0  0  0  0
   50.9294   -3.7213   -8.1761 O   0  0  0  0  0  0  0  0  0  0  0  0
   53.2149   -3.8931   -7.7210 N   0  0  0  0  0  0  0  0  0  0  0  0
   53.6878   -3.0954   -8.8766 C   0  0  0  0  0  0  0  0  0  0  0  0
   55.0666   -2.6348   -8.3610 C   0  0  0  0  0  0  0  0  0  0  0  0
   55.5065   -3.9798   -7.8346 C   0  0  0  0  0  0  0  0  0  0  0  0
   56.8824   -4.1780   -7.3838 C   0  0  0  0  0  0  0  0  0  0  0  0
   56.9716   -5.3915   -8.2585 C   0  0  0  0  0  0  0  0  0  0  0  0
   55.6766   -4.9519   -8.9761 C   0  0  0  0  0  0  0  0  0  0  0  0
   54.3477   -4.3464   -6.9486 C   0  0  0  0  0  0  0  0  0  0  0  0
   50.8374   -6.3467   -4.1025 C   0  0  0  0  0  0  0  0  0  0  0  0
   51.1801   -5.5770   -5.3138 C   0  0  0  0  0  0  0  0  0  0  0  0
   51.4772   -4.9210   -6.3064 C   0  0  0  0  0  0  0  0  0  0  0  0
   61.2171   -6.1316  -10.8546 C   0  0  0  0  0  0  0  0  0  0  0  0
   61.8460   -7.0579  -10.0086 C   0  0  0  0  0  0  0  0  0  0  0  0
   63.0665   -7.5894  -10.2839 C   0  0  0  0  0  0  0  0  0  0  0  0
   63.7149   -7.2174  -11.4219 C   0  0  0  0  0  0  0  0  0  0  0  0
   63.1255   -6.3053  -12.2861 C   0  0  0  0  0  0  0  0  0  0  0  0
   61.8930   -5.7809  -11.9875 C   0  0  0  0  0  0  0  0  0  0  0  0
   63.8677   -5.9458  -13.5161 C   0  0  0  0  0  0  0  0  0  0  0  0
   65.2181   -6.1473  -13.2886 F   0  0  0  0  0  0  0  0  0  0  0  0
   63.4282   -6.6419  -14.6277 F   0  0  0  0  0  0  0  0  0  0  0  0
   63.6914   -4.5865  -13.7388 F   0  0  0  0  0  0  0  0  0  0  0  0
 23 24  1  0  0  0
 24 25  3  0  0  0
 25 13  1  0  0  0
 13 14  2  0  0  0
 13 15  1  0  0  0
 15 16  1  0  0  0
 16 17  1  0  0  0
 18 17  1  0  0  0
 18 19  1  0  0  0
 19 20  1  0  0  0
 20 21  1  0  0  0
 20  1  1  0  0  0
  1  2  2  0  0  0
  2  3  1  0  0  0
  3 26  1  0  0  0
 26 27  2  0  0  0
 27 28  1  0  0  0
 28 29  2  0  0  0
 29 30  1  0  0  0
 30 31  2  0  0  0
 30 32  1  0  0  0
 32 33  1  0  0  0
 32 34  1  0  0  0
 32 35  1  0  0  0
  3  4  2  0  0  0
  4  5  1  0  0  0
  5  6  1  0  0  0
  5  7  2  0  0  0
  7  8  1  0  0  0
  8  9  2  0  0  0
  9 10  1  0  0  0
 18 22  1  0  0  0
 22 15  1  0  0  0
 21 18  1  0  0  0
 10  1  1  0  0  0
 31 26  1  0  0  0
 10  4  1  0  0  0
  6 11  1  0  0  0
  6 12  1  0  0  0
M  END
> <minimizedAffinity>
-5.08045

> <CNNscore>
0.2682215571

> <CNNaffinity>
6.6066703796

> <CNN_VS>
1.7720514536

> <CNNaffinity_variance>
0.0664884001

$$$$
[H]c1nc(N([H])[H])c2c(-c3c([H])c([H])c([H])c(C(F)(F)F)c3[H])nc([C@]3([H])C([H])([H])[C@@]4(C([H])([H])N(C(=O)C#CC([H])([H])[H])C([H])([H])C4([H])[H])C3([H])[H])n2c1[H]


 35 39  0  0  0  0  0  0  0  0999 V2000
   55.7703   -3.9498  -10.2282 C   0  0  0  0  0  0  0  0  0  0  0  0
   54.4674   -3.8779   -9.9853 N   0  0  0  0  0  0  0  0  0  0  0  0
   54.1981   -4.3757   -8.7350 C   0  0  0  0  0  0  0  0  0  0  0  0
   55.4155   -4.7522   -8.2356 C   0  0  0  0  0  0  0  0  0  0  0  0
   55.8292   -5.3005   -7.0198 C   0  0  0  0  0  0  0  0  0  0  0  0
   54.8414   -5.5573   -6.0371 N   0  0  0  0  0  0  0  0  0  0  0  0
   57.1389   -5.5741   -6.7480 N   0  0  0  0  0  0  0  0  0  0  0  0
   58.0500   -5.3055   -7.6784 C   0  0  0  0  0  0  0  0  0  0  0  0
   57.6877   -4.7668   -8.8846 C   0  0  0  0  0  0  0  0  0  0  0  0
   56.3907   -4.4960   -9.1466 N   0  0  0  0  0  0  0  0  0  0  0  0
   54.4425   -4.7752   -5.4978 H   0  0  0  0  0  0  0  0  0  0  0  0
   54.5293   -6.5217   -5.8717 H   0  0  0  0  0  0  0  0  0  0  0  0
   56.5266   -3.3356  -16.7319 C   0  0  0  0  0  0  0  0  0  0  0  0
   55.6814   -3.6131  -17.6180 O   0  0  0  0  0  0  0  0  0  0  0  0
   56.5377   -3.9586  -15.4715 N   0  0  0  0  0  0  0  0  0  0  0  0
   55.5708   -5.0029  -15.0592 C   0  0  0  0  0  0  0  0  0  0  0  0
   56.3760   -5.7180  -13.9550 C   0  0  0  0  0  0  0  0  0  0  0  0
   56.8470   -4.4666  -13.2538 C   0  0  0  0  0  0  0  0  0  0  0  0
   57.5265   -4.5591  -11.9633 C   0  0  0  0  0  0  0  0  0  0  0  0
   56.5740   -3.5414  -11.4129 C   0  0  0  0  0  0  0  0  0  0  0  0
   55.6714   -3.7377  -12.6507 C   0  0  0  0  0  0  0  0  0  0  0  0
   57.4623   -3.7008  -14.3926 C   0  0  0  0  0  0  0  0  0  0  0  0
   59.2742   -0.3905  -17.6534 C   0  0  0  0  0  0  0  0  0  0  0  0
   58.3103   -1.4629  -17.3407 C   0  0  0  0  0  0  0  0  0  0  0  0
   57.4997   -2.3401  -17.0628 C   0  0  0  0  0  0  0  0  0  0  0  0
   52.8937   -4.4246   -8.0984 C   0  0  0  0  0  0  0  0  0  0  0  0
   52.4902   -5.6567   -7.5613 C   0  0  0  0  0  0  0  0  0  0  0  0
   51.3207   -5.8130   -6.8863 C   0  0  0  0  0  0  0  0  0  0  0  0
   50.4995   -4.7403   -6.7171 C   0  0  0  0  0  0  0  0  0  0  0  0
   50.8636   -3.5036   -7.2312 C   0  0  0  0  0  0  0  0  0  0  0  0
   52.0486   -3.3693   -7.9101 C   0  0  0  0  0  0  0  0  0  0  0  0
   49.9405   -2.3676   -7.0069 C   0  0  0  0  0  0  0  0  0  0  0  0
   49.6665   -2.2854   -5.6526 F   0  0  0  0  0  0  0  0  0  0  0  0
   50.4335   -1.1734   -7.5010 F   0  0  0  0  0  0  0  0  0  0  0  0
   48.7429   -2.6583   -7.6469 F   0  0  0  0  0  0  0  0  0  0  0  0
 23 24  1  0  0  0
 24 25  3  0  0  0
 25 13  1  0  0  0
 13 14  2  0  0  0
 13 15  1  0  0  0
 15 16  1  0  0  0
 16 17  1  0  0  0
 18 17  1  0  0  0
 18 19  1  0  0  0
 19 20  1  0  0  0
 20 21  1  0  0  0
 20  1  1  0  0  0
  1  2  2  0  0  0
  2  3  1  0  0  0
  3 26  1  0  0  0
 26 27  2  0  0  0
 27 28  1  0  0  0
 28 29  2  0  0  0
 29 30  1  0  0  0
 30 31  2  0  0  0
 30 32  1  0  0  0
 32 33  1  0  0  0
 32 34  1  0  0  0
 32 35  1  0  0  0
  3  4  2  0  0  0
  4  5  1  0  0  0
  5  6  1  0  0  0
  5  7  2  0  0  0
  7  8  1  0  0  0
  8  9  2  0  0  0
  9 10  1  0  0  0
 18 22  1  0  0  0
 22 15  1  0  0  0
 21 18  1  0  0  0
 10  1  1  0  0  0
 31 26  1  0  0  0
 10  4  1  0  0  0
  6 11  1  0  0  0
  6 12  1  0  0  0
M  END
> <minimizedAffinity>
-9.22466

> <CNNscore>
0.2640975714

> <CNNaffinity>
7.0910048485

> <CNN_VS>
1.8727171421

> <CNNaffinity_variance>
0.0434954278

$$$$
[H]c1nc(N([H])[H])c2c(-c3c([H])c([H])c([H])c(C(F)(F)F)c3[H])nc([C@]3([H])C([H])([H])[C@@]4(C([H])([H])N(C(=O)C#CC([H])([H])[H])C([H])([H])C4([H])[H])C3([H])[H])n2c1[H]


 35 39  0  0  0  0  0  0  0  0999 V2000
   56.4364   -5.4471   -8.5133 C   0  0  0  0  0  0  0  0  0  0  0  0
   57.6579   -5.9035   -8.2656 N   0  0  0  0  0  0  0  0  0  0  0  0
   58.4956   -5.5804   -9.3036 C   0  0  0  0  0  0  0  0  0  0  0  0
   57.7086   -4.9007  -10.1936 C   0  0  0  0  0  0  0  0  0  0  0  0
   57.9548   -4.2897  -11.4247 C   0  0  0  0  0  0  0  0  0  0  0  0
   59.2742   -4.3396  -11.9385 N   0  0  0  0  0  0  0  0  0  0  0  0
   56.9810   -3.6398  -12.1272 N   0  0  0  0  0  0  0  0  0  0  0  0
   55.7551   -3.5888  -11.6148 C   0  0  0  0  0  0  0  0  0  0  0  0
   55.4703   -4.1744  -10.4096 C   0  0  0  0  0  0  0  0  0  0  0  0
   56.4386   -4.8137   -9.7183 N   0  0  0  0  0  0  0  0  0  0  0  0
   60.0008   -3.7276  -11.5396 H   0  0  0  0  0  0  0  0  0  0  0  0
   59.4963   -4.9878  -12.7037 H   0  0  0  0  0  0  0  0  0  0  0  0
   53.2771   -5.6035   -2.7477 C   0  0  0  0  0  0  0  0  0  0  0  0
   53.7896   -5.5092   -1.6053 O   0  0  0  0  0  0  0  0  0  0  0  0
   53.9855   -6.0924   -3.8595 N   0  0  0  0  0  0  0  0  0  0  0  0
   55.3933   -6.5513   -3.8038 C   0  0  0  0  0  0  0  0  0  0  0  0
   55.4347   -7.4954   -5.0228 C   0  0  0  0  0  0  0  0  0  0  0  0
   54.7295   -6.5645   -5.9797 C   0  0  0  0  0  0  0  0  0  0  0  0
   54.6601   -6.8887   -7.4030 C   0  0  0  0  0  0  0  0  0  0  0  0
   55.1796   -5.5189   -7.7186 C   0  0  0  0  0  0  0  0  0  0  0  0
   55.5805   -5.3452   -6.2373 C   0  0  0  0  0  0  0  0  0  0  0  0
   53.4835   -6.2303   -5.2065 C   0  0  0  0  0  0  0  0  0  0  0  0
   49.3181   -4.4910   -3.1487 C   0  0  0  0  0  0  0  0  0  0  0  0
   50.7397   -4.8579   -3.0021 C   0  0  0  0  0  0  0  0  0  0  0  0
   51.9145   -5.1863   -2.8761 C   0  0  0  0  0  0  0  0  0  0  0  0
   59.9166   -5.8715   -9.3761 C   0  0  0  0  0  0  0  0  0  0  0  0
   60.5908   -6.0719   -8.1618 C   0  0  0  0  0  0  0  0  0  0  0  0
   61.9055   -6.4126   -8.1023 C   0  0  0  0  0  0  0  0  0  0  0  0
   62.6072   -6.5691   -9.2585 C   0  0  0  0  0  0  0  0  0  0  0  0
   61.9760   -6.3822  -10.4803 C   0  0  0  0  0  0  0  0  0  0  0  0
   60.6482   -6.0376  -10.5165 C   0  0  0  0  0  0  0  0  0  0  0  0
   62.7820   -6.5785  -11.7070 C   0  0  0  0  0  0  0  0  0  0  0  0
   64.0987   -6.2600  -11.4228 F   0  0  0  0  0  0  0  0  0  0  0  0
   62.6663   -7.8565  -12.2232 F   0  0  0  0  0  0  0  0  0  0  0  0
   62.3399   -5.6683  -12.6581 F   0  0  0  0  0  0  0  0  0  0  0  0
 23 24  1  0  0  0
 24 25  3  0  0  0
 25 13  1  0  0  0
 13 14  2  0  0  0
 13 15  1  0  0  0
 15 16  1  0  0  0
 16 17  1  0  0  0
 18 17  1  0  0  0
 18 19  1  0  0  0
 19 20  1  0  0  0
 20 21  1  0  0  0
 20  1  1  0  0  0
  1  2  2  0  0  0
  2  3  1  0  0  0
  3 26  1  0  0  0
 26 27  2  0  0  0
 27 28  1  0  0  0
 28 29  2  0  0  0
 29 30  1  0  0  0
 30 31  2  0  0  0
 30 32  1  0  0  0
 32 33  1  0  0  0
 32 34  1  0  0  0
 32 35  1  0  0  0
  3  4  2  0  0  0
  4  5  1  0  0  0
  5  6  1  0  0  0
  5  7  2  0  0  0
  7  8  1  0  0  0
  8  9  2  0  0  0
  9 10  1  0  0  0
 18 22  1  0  0  0
 22 15  1  0  0  0
 21 18  1  0  0  0
 10  1  1  0  0  0
 31 26  1  0  0  0
 10  4  1  0  0  0
  6 11  1  0  0  0
  6 12  1  0  0  0
M  END
> <minimizedAffinity>
-5.46737

> <CNNscore>
0.2466925234

> <CNNaffinity>
6.4284257889

> <CNN_VS>
1.5858446360

> <CNNaffinity_variance>
0.2149262428

$$$$
[H]c1nc(N([H])[H])c2c(-c3c([H])c([H])c([H])c(C(F)(F)F)c3[H])nc([C@]3([H])C([H])([H])[C@@]4(C([H])([H])N(C(=O)C#CC([H])([H])[H])C([H])([H])C4([H])[H])C3([H])[H])n2c1[H]


 35 39  0  0  0  0  0  0  0  0999 V2000
   61.5744   -7.9631   -7.9099 C   0  0  0  0  0  0  0  0  0  0  0  0
   61.5658   -7.4284   -6.6951 N   0  0  0  0  0  0  0  0  0  0  0  0
   61.6931   -8.4157   -5.7503 C   0  0  0  0  0  0  0  0  0  0  0  0
   61.7801   -9.5794   -6.4657 C   0  0  0  0  0  0  0  0  0  0  0  0
   61.9451  -10.9189   -6.1080 C   0  0  0  0  0  0  0  0  0  0  0  0
   62.0504  -11.2299   -4.7297 N   0  0  0  0  0  0  0  0  0  0  0  0
   62.0258  -11.9194   -7.0337 N   0  0  0  0  0  0  0  0  0  0  0  0
   61.9448  -11.6004   -8.3219 C   0  0  0  0  0  0  0  0  0  0  0  0
   61.7834  -10.2986   -8.7167 C   0  0  0  0  0  0  0  0  0  0  0  0
   61.7068   -9.3132   -7.7962 N   0  0  0  0  0  0  0  0  0  0  0  0
   62.9286  -11.0338   -4.2278 H   0  0  0  0  0  0  0  0  0  0  0  0
   61.2487  -11.6466   -4.2412 H   0  0  0  0  0  0  0  0  0  0  0  0
   58.9807   -3.5478  -12.0361 C   0  0  0  0  0  0  0  0  0  0  0  0
   58.1439   -2.6549  -11.7549 O   0  0  0  0  0  0  0  0  0  0  0  0
   59.0871   -4.7453  -11.3069 N   0  0  0  0  0  0  0  0  0  0  0  0
   58.2292   -5.0837  -10.1472 C   0  0  0  0  0  0  0  0  0  0  0  0
   58.3287   -6.6228  -10.1575 C   0  0  0  0  0  0  0  0  0  0  0  0
   59.8257   -6.6928  -10.3408 C   0  0  0  0  0  0  0  0  0  0  0  0
   60.5211   -7.9728  -10.2244 C   0  0  0  0  0  0  0  0  0  0  0  0
   61.4776   -7.3412   -9.2590 C   0  0  0  0  0  0  0  0  0  0  0  0
   60.5227   -6.1349   -9.1242 C   0  0  0  0  0  0  0  0  0  0  0  0
   60.0186   -5.8213  -11.5513 C   0  0  0  0  0  0  0  0  0  0  0  0
   61.3984   -2.7417  -15.2883 C   0  0  0  0  0  0  0  0  0  0  0  0
   60.5513   -3.0561  -14.1219 C   0  0  0  0  0  0  0  0  0  0  0  0
   59.8392   -3.2940  -13.1522 C   0  0  0  0  0  0  0  0  0  0  0  0
   61.7677   -8.2179   -4.3135 C   0  0  0  0  0  0  0  0  0  0  0  0
   60.5544   -8.1808   -3.6095 C   0  0  0  0  0  0  0  0  0  0  0  0
   60.4968   -8.0649   -2.2562 C   0  0  0  0  0  0  0  0  0  0  0  0
   61.6540   -7.9810   -1.5439 C   0  0  0  0  0  0  0  0  0  0  0  0
   62.8750   -8.0165   -2.2029 C   0  0  0  0  0  0  0  0  0  0  0  0
   62.9092   -8.1331   -3.5697 C   0  0  0  0  0  0  0  0  0  0  0  0
   64.1029   -7.9356   -1.3791 C   0  0  0  0  0  0  0  0  0  0  0  0
   64.8767   -6.8873   -1.8463 F   0  0  0  0  0  0  0  0  0  0  0  0
   63.8324   -7.8077   -0.0286 F   0  0  0  0  0  0  0  0  0  0  0  0
   64.8309   -9.1004   -1.5829 F   0  0  0  0  0  0  0  0  0  0  0  0
 23 24  1  0  0  0
 24 25  3  0  0  0
 25 13  1  0  0  0
 13 14  2  0  0  0
 13 15  1  0  0  0
 15 16  1  0  0  0
 16 17  1  0  0  0
 18 17  1  0  0  0
 18 19  1  0  0  0
 19 20  1  0  0  0
 20 21  1  0  0  0
 20  1  1  0  0  0
  1  2  2  0  0  0
  2  3  1  0  0  0
  3 26  1  0  0  0
 26 27  2  0  0  0
 27 28  1  0  0  0
 28 29  2  0  0  0
 29 30  1  0  0  0
 30 31  2  0  0  0
 30 32  1  0  0  0
 32 33  1  0  0  0
 32 34  1  0  0  0
 32 35  1  0  0  0
  3  4  2  0  0  0
  4  5  1  0  0  0
  5  6  1  0  0  0
  5  7  2  0  0  0
  7  8  1  0  0  0
  8  9  2  0  0  0
  9 10  1  0  0  0
 18 22  1  0  0  0
 22 15  1  0  0  0
 21 18  1  0  0  0
 10  1  1  0  0  0
 31 26  1  0  0  0
 10  4  1  0  0  0
  6 11  1  0  0  0
  6 12  1  0  0  0
M  END
> <minimizedAffinity>
0.25504

> <CNNscore>
0.2411488891

> <CNNaffinity>
5.6194524765

> <CNN_VS>
1.3551247120

> <CNNaffinity_variance>
0.5049484968

$$$$
[H]c1nc(N([H])[H])c2c(-c3c([H])c([H])c([H])c(C(F)(F)F)c3[H])nc([C@]3([H])C([H])([H])[C@@]4(C([H])([H])N(C(=O)C#CC([H])([H])[H])C([H])([H])C4([H])[H])C3([H])[H])n2c1[H]


 35 39  0  0  0  0  0  0  0  0999 V2000
   62.4644   -7.9994   -7.5393 C   0  0  0  0  0  0  0  0  0  0  0  0
   61.5658   -7.0842   -7.8807 N   0  0  0  0  0  0  0  0  0  0  0  0
   61.5431   -6.9397   -9.2453 C   0  0  0  0  0  0  0  0  0  0  0  0
   62.4806   -7.8224   -9.7092 C   0  0  0  0  0  0  0  0  0  0  0  0
   62.9209   -8.1759  -10.9862 C   0  0  0  0  0  0  0  0  0  0  0  0
   62.3252   -7.5284  -12.0968 N   0  0  0  0  0  0  0  0  0  0  0  0
   63.8797   -9.1258  -11.1933 N   0  0  0  0  0  0  0  0  0  0  0  0
   64.4094   -9.7341  -10.1363 C   0  0  0  0  0  0  0  0  0  0  0  0
   64.0060   -9.4182   -8.8659 C   0  0  0  0  0  0  0  0  0  0  0  0
   63.0553   -8.4794   -8.6678 N   0  0  0  0  0  0  0  0  0  0  0  0
   61.3774   -7.7986  -12.3971 H   0  0  0  0  0  0  0  0  0  0  0  0
   62.8429   -6.7926  -12.5923 H   0  0  0  0  0  0  0  0  0  0  0  0
   61.0107  -10.8805   -1.8091 C   0  0  0  0  0  0  0  0  0  0  0  0
   59.8891  -11.3137   -1.4471 O   0  0  0  0  0  0  0  0  0  0  0  0
   61.1572   -9.8422   -2.7459 N   0  0  0  0  0  0  0  0  0  0  0  0
   60.0190   -9.1493   -3.3938 C   0  0  0  0  0  0  0  0  0  0  0  0
   60.6802   -7.8092   -3.7759 C   0  0  0  0  0  0  0  0  0  0  0  0
   61.9418   -8.4037   -4.3542 C   0  0  0  0  0  0  0  0  0  0  0  0
   62.8914   -7.5559   -5.0720 C   0  0  0  0  0  0  0  0  0  0  0  0
   62.8701   -8.5315   -6.2093 C   0  0  0  0  0  0  0  0  0  0  0  0
   61.6180   -9.1965   -5.5966 C   0  0  0  0  0  0  0  0  0  0  0  0
   62.4003   -9.2853   -3.2253 C   0  0  0  0  0  0  0  0  0  0  0  0
   64.2658  -12.6989   -0.0287 C   0  0  0  0  0  0  0  0  0  0  0  0
   63.1231  -12.0331   -0.6829 C   0  0  0  0  0  0  0  0  0  0  0  0
   62.1582  -11.4971   -1.2174 C   0  0  0  0  0  0  0  0  0  0  0  0
   60.6607   -6.0643   -9.9964 C   0  0  0  0  0  0  0  0  0  0  0  0
   61.1085   -5.6313  -11.2540 C   0  0  0  0  0  0  0  0  0  0  0  0
   60.3472   -4.8624  -12.0770 C   0  0  0  0  0  0  0  0  0  0  0  0
   59.0996   -4.4910  -11.6780 C   0  0  0  0  0  0  0  0  0  0  0  0
   58.6189   -4.9007  -10.4421 C   0  0  0  0  0  0  0  0  0  0  0  0
   59.4052   -5.6759   -9.6273 C   0  0  0  0  0  0  0  0  0  0  0  0
   57.2504   -4.4801  -10.0635 C   0  0  0  0  0  0  0  0  0  0  0  0
   57.2642   -4.0835   -8.7374 F   0  0  0  0  0  0  0  0  0  0  0  0
   56.7494   -3.4885  -10.8874 F   0  0  0  0  0  0  0  0  0  0  0  0
   56.4239   -5.5930  -10.1462 F   0  0  0  0  0  0  0  0  0  0  0  0
 23 24  1  0  0  0
 24 25  3  0  0  0
 25 13  1  0  0  0
 13 14  2  0  0  0
 13 15  1  0  0  0
 15 16  1  0  0  0
 16 17  1  0  0  0
 18 17  1  0  0  0
 18 19  1  0  0  0
 19 20  1  0  0  0
 20 21  1  0  0  0
 20  1  1  0  0  0
  1  2  2  0  0  0
  2  3  1  0  0  0
  3 26  1  0  0  0
 26 27  2  0  0  0
 27 28  1  0  0  0
 28 29  2  0  0  0
 29 30  1  0  0  0
 30 31  2  0  0  0
 30 32  1  0  0  0
 32 33  1  0  0  0
 32 34  1  0  0  0
 32 35  1  0  0  0
  3  4  2  0  0  0
  4  5  1  0  0  0
  5  6  1  0  0  0
  5  7  2  0  0  0
  7  8  1  0  0  0
  8  9  2  0  0  0
  9 10  1  0  0  0
 18 22  1  0  0  0
 22 15  1  0  0  0
 21 18  1  0  0  0
 10  1  1  0  0  0
 31 26  1  0  0  0
 10  4  1  0  0  0
  6 11  1  0  0  0
  6 12  1  0  0  0
M  END
> <minimizedAffinity>
-2.15763

> <CNNscore>
0.2381370962

> <CNNaffinity>
5.6922845840

> <CNN_VS>
1.3555440903

> <CNNaffinity_variance>
0.5512210131

$$$$
[H]c1nc(N([H])[H])c2c(-c3c([H])c([H])c([H])c(C(F)(F)F)c3[H])nc([C@]3([H])C([H])([H])[C@@]4(C([H])([H])N(C(=O)C#CC([H])([H])[H])C([H])([H])C4([H])[H])C3([H])[H])n2c1[H]


 35 39  0  0  0  0  0  0  0  0999 V2000
   57.3093   -4.5296   -9.1773 C   0  0  0  0  0  0  0  0  0  0  0  0
   58.2013   -4.3650  -10.1463 N   0  0  0  0  0  0  0  0  0  0  0  0
   57.5632   -4.0382  -11.3166 C   0  0  0  0  0  0  0  0  0  0  0  0
   56.2324   -4.0139  -10.9979 C   0  0  0  0  0  0  0  0  0  0  0  0
   55.0740   -3.7291  -11.7236 C   0  0  0  0  0  0  0  0  0  0  0  0
   55.2149   -3.3854  -13.0909 N   0  0  0  0  0  0  0  0  0  0  0  0
   53.8313   -3.7533  -11.1583 N   0  0  0  0  0  0  0  0  0  0  0  0
   53.7264   -4.0588   -9.8685 C   0  0  0  0  0  0  0  0  0  0  0  0
   54.8372   -4.3443   -9.1194 C   0  0  0  0  0  0  0  0  0  0  0  0
   56.0639   -4.3163   -9.6838 N   0  0  0  0  0  0  0  0  0  0  0  0
   55.5540   -2.4473  -13.3490 H   0  0  0  0  0  0  0  0  0  0  0  0
   54.9797   -4.0757  -13.8141 H   0  0  0  0  0  0  0  0  0  0  0  0
   55.3772   -7.7520   -3.7800 C   0  0  0  0  0  0  0  0  0  0  0  0
   54.4295   -8.5709   -3.6905 O   0  0  0  0  0  0  0  0  0  0  0  0
   55.4105   -6.7322   -4.7474 N   0  0  0  0  0  0  0  0  0  0  0  0
   54.3412   -6.5101   -5.7488 C   0  0  0  0  0  0  0  0  0  0  0  0
   54.5634   -5.0198   -6.0785 C   0  0  0  0  0  0  0  0  0  0  0  0
   56.0635   -5.1031   -6.2277 C   0  0  0  0  0  0  0  0  0  0  0  0
   56.8145   -3.9626   -6.7483 C   0  0  0  0  0  0  0  0  0  0  0  0
   57.4725   -4.8750   -7.7384 C   0  0  0  0  0  0  0  0  0  0  0  0
   56.4184   -5.9578   -7.4196 C   0  0  0  0  0  0  0  0  0  0  0  0
   56.4563   -5.7533   -4.9296 C   0  0  0  0  0  0  0  0  0  0  0  0
   58.4778   -8.0813   -1.0690 C   0  0  0  0  0  0  0  0  0  0  0  0
   57.3688   -7.9952   -2.0384 C   0  0  0  0  0  0  0  0  0  0  0  0
   56.4440   -7.8998   -2.8380 C   0  0  0  0  0  0  0  0  0  0  0  0
   58.2055   -3.7394  -12.5844 C   0  0  0  0  0  0  0  0  0  0  0  0
   59.6047   -3.6321  -12.5826 C   0  0  0  0  0  0  0  0  0  0  0  0
   60.3238   -3.4188  -13.7164 C   0  0  0  0  0  0  0  0  0  0  0  0
   59.6736   -3.3033  -14.9070 C   0  0  0  0  0  0  0  0  0  0  0  0
   58.2902   -3.4059  -14.9515 C   0  0  0  0  0  0  0  0  0  0  0  0
   57.5846   -3.6204  -13.7943 C   0  0  0  0  0  0  0  0  0  0  0  0
   57.6347   -3.2865  -16.2740 C   0  0  0  0  0  0  0  0  0  0  0  0
   58.4626   -2.5575  -17.1101 F   0  0  0  0  0  0  0  0  0  0  0  0
   57.3097   -4.5143  -16.8217 F   0  0  0  0  0  0  0  0  0  0  0  0
   56.4713   -2.5466  -16.1082 F   0  0  0  0  0  0  0  0  0  0  0  0
 23 24  1  0  0  0
 24 25  3  0  0  0
 25 13  1  0  0  0
 13 14  2  0  0  0
 13 15  1  0  0  0
 15 16  1  0  0  0
 16 17  1  0  0  0
 18 17  1  0  0  0
 18 19  1  0  0  0
 19 20  1  0  0  0
 20 21  1  0  0  0
 20  1  1  0  0  0
  1  2  2  0  0  0
  2  3  1  0  0  0
  3 26  1  0  0  0
 26 27  2  0  0  0
 27 28  1  0  0  0
 28 29  2  0  0  0
 29 30  1  0  0  0
 30 31  2  0  0  0
 30 32  1  0  0  0
 32 33  1  0  0  0
 32 34  1  0  0  0
 32 35  1  0  0  0
  3  4  2  0  0  0
  4  5  1  0  0  0
  5  6  1  0  0  0
  5  7  2  0  0  0
  7  8  1  0  0  0
  8  9  2  0  0  0
  9 10  1  0  0  0
 18 22  1  0  0  0
 22 15  1  0  0  0
 21 18  1  0  0  0
 10  1  1  0  0  0
 31 26  1  0  0  0
 10  4  1  0  0  0
  6 11  1  0  0  0
  6 12  1  0  0  0
M  END
> <minimizedAffinity>
-3.45885

> <CNNscore>
0.2359622866

> <CNNaffinity>
6.5182275772

> <CNN_VS>
1.5380558968

> <CNNaffinity_variance>
0.1356663704

$$$$
[H]c1nc(N([H])[H])c2c(-c3c([H])c([H])c([H])c(C(F)(F)F)c3[H])nc([C@]3([H])C([H])([H])[C@@]4(C([H])([H])N(C(=O)C#CC([H])([H])[H])C([H])([H])C4([H])[H])C3([H])[H])n2c1[H]


 35 39  0  0  0  0  0  0  0  0999 V2000
   55.0998   -5.8995   -6.2287 C   0  0  0  0  0  0  0  0  0  0  0  0
   53.8946   -5.5737   -5.7780 N   0  0  0  0  0  0  0  0  0  0  0  0
   53.2746   -4.7348   -6.6698 C   0  0  0  0  0  0  0  0  0  0  0  0
   54.1758   -4.5732   -7.6872 C   0  0  0  0  0  0  0  0  0  0  0  0
   54.1496   -3.8705   -8.8935 C   0  0  0  0  0  0  0  0  0  0  0  0
   52.9788   -3.1380   -9.2098 N   0  0  0  0  0  0  0  0  0  0  0  0
   55.1951   -3.8841   -9.7716 N   0  0  0  0  0  0  0  0  0  0  0  0
   56.2750   -4.5954   -9.4620 C   0  0  0  0  0  0  0  0  0  0  0  0
   56.3423   -5.2999   -8.2892 C   0  0  0  0  0  0  0  0  0  0  0  0
   55.3038   -5.2844   -7.4258 N   0  0  0  0  0  0  0  0  0  0  0  0
   52.1367   -3.6361   -9.5328 H   0  0  0  0  0  0  0  0  0  0  0  0
   52.9785   -2.1155   -9.1122 H   0  0  0  0  0  0  0  0  0  0  0  0
   57.7453   -9.1911   -1.1874 C   0  0  0  0  0  0  0  0  0  0  0  0
   57.2735   -9.3008   -0.0289 O   0  0  0  0  0  0  0  0  0  0  0  0
   57.4589   -8.0974   -2.0233 N   0  0  0  0  0  0  0  0  0  0  0  0
   56.5869   -6.9656   -1.6309 C   0  0  0  0  0  0  0  0  0  0  0  0
   57.1078   -5.8627   -2.5750 C   0  0  0  0  0  0  0  0  0  0  0  0
   57.1349   -6.7104   -3.8241 C   0  0  0  0  0  0  0  0  0  0  0  0
   57.3827   -6.0934   -5.1255 C   0  0  0  0  0  0  0  0  0  0  0  0
   56.1595   -6.7758   -5.6582 C   0  0  0  0  0  0  0  0  0  0  0  0
   55.7312   -7.1061   -4.2116 C   0  0  0  0  0  0  0  0  0  0  0  0
   57.9480   -7.8899   -3.3661 C   0  0  0  0  0  0  0  0  0  0  0  0
   60.3064  -12.1708   -2.4659 C   0  0  0  0  0  0  0  0  0  0  0  0
   59.3673  -11.1248   -2.0175 C   0  0  0  0  0  0  0  0  0  0  0  0
   58.6053  -10.2446   -1.6324 C   0  0  0  0  0  0  0  0  0  0  0  0
   51.9302   -4.1997   -6.5455 C   0  0  0  0  0  0  0  0  0  0  0  0
   51.3701   -3.6065   -7.6873 C   0  0  0  0  0  0  0  0  0  0  0  0
   50.0981   -3.1275   -7.7139 C   0  0  0  0  0  0  0  0  0  0  0  0
   49.3264   -3.2211   -6.5962 C   0  0  0  0  0  0  0  0  0  0  0  0
   49.8427   -3.8034   -5.4470 C   0  0  0  0  0  0  0  0  0  0  0  0
   51.1298   -4.2793   -5.4426 C   0  0  0  0  0  0  0  0  0  0  0  0
   48.9563   -3.8922   -4.2640 C   0  0  0  0  0  0  0  0  0  0  0  0
   47.9115   -2.9995   -4.4304 F   0  0  0  0  0  0  0  0  0  0  0  0
   48.4979   -5.1770   -4.0354 F   0  0  0  0  0  0  0  0  0  0  0  0
   49.6794   -3.4696   -3.1564 F   0  0  0  0  0  0  0  0  0  0  0  0
 23 24  1  0  0  0
 24 25  3  0  0  0
 25 13  1  0  0  0
 13 14  2  0  0  0
 13 15  1  0  0  0
 15 16  1  0  0  0
 16 17  1  0  0  0
 18 17  1  0  0  0
 18 19  1  0  0  0
 19 20  1  0  0  0
 20 21  1  0  0  0
 20  1  1  0  0  0
  1  2  2  0  0  0
  2  3  1  0  0  0
  3 26  1  0  0  0
 26 27  2  0  0  0
 27 28  1  0  0  0
 28 29  2  0  0  0
 29 30  1  0  0  0
 30 31  2  0  0  0
 30 32  1  0  0  0
 32 33  1  0  0  0
 32 34  1  0  0  0
 32 35  1  0  0  0
  3  4  2  0  0  0
  4  5  1  0  0  0
  5  6  1  0  0  0
  5  7  2  0  0  0
  7  8  1  0  0  0
  8  9  2  0  0  0
  9 10  1  0  0  0
 18 22  1  0  0  0
 22 15  1  0  0  0
 21 18  1  0  0  0
 10  1  1  0  0  0
 31 26  1  0  0  0
 10  4  1  0  0  0
  6 11  1  0  0  0
  6 12  1  0  0  0
M  END
> <minimizedAffinity>
-8.63706

> <CNNscore>
0.2221500725

> <CNNaffinity>
7.1704416275

> <CNN_VS>
1.5929141045

> <CNNaffinity_variance>
0.3840439320

$$$$
[H]c1nc(N([H])[H])c2c(-c3c([H])c([H])c([H])c(C(F)(F)F)c3[H])nc([C@]3([H])C([H])([H])[C@@]4(C([H])([H])N(C(=O)C#CC([H])([H])[H])C([H])([H])C4([H])[H])C3([H])[H])n2c1[H]


 35 39  0  0  0  0  0  0  0  0999 V2000
   55.8760   -5.5937   -5.8114 C   0  0  0  0  0  0  0  0  0  0  0  0
   54.5721   -5.5703   -5.5645 N   0  0  0  0  0  0  0  0  0  0  0  0
   53.8945   -5.1405   -6.6780 C   0  0  0  0  0  0  0  0  0  0  0  0
   54.8659   -4.9062   -7.6134 C   0  0  0  0  0  0  0  0  0  0  0  0
   54.8388   -4.4826   -8.9436 C   0  0  0  0  0  0  0  0  0  0  0  0
   53.5770   -4.2117   -9.5285 N   0  0  0  0  0  0  0  0  0  0  0  0
   55.9730   -4.3424   -9.6906 N   0  0  0  0  0  0  0  0  0  0  0  0
   57.1438   -4.6221   -9.1258 C   0  0  0  0  0  0  0  0  0  0  0  0
   57.2157   -5.0414   -7.8237 C   0  0  0  0  0  0  0  0  0  0  0  0
   56.0898   -5.1805   -7.0907 N   0  0  0  0  0  0  0  0  0  0  0  0
   52.9672   -4.9926   -9.8112 H   0  0  0  0  0  0  0  0  0  0  0  0
   53.2794   -3.2380   -9.6639 H   0  0  0  0  0  0  0  0  0  0  0  0
   58.7616   -9.7069   -1.5683 C   0  0  0  0  0  0  0  0  0  0  0  0
   58.3012  -10.7947   -1.1425 O   0  0  0  0  0  0  0  0  0  0  0  0
   57.9391   -8.6555   -2.0100 N   0  0  0  0  0  0  0  0  0  0  0  0
   56.4585   -8.7122   -2.0136 C   0  0  0  0  0  0  0  0  0  0  0  0
   56.1147   -7.2091   -1.9752 C   0  0  0  0  0  0  0  0  0  0  0  0
   57.0960   -6.7854   -3.0415 C   0  0  0  0  0  0  0  0  0  0  0  0
   57.0643   -5.4232   -3.5696 C   0  0  0  0  0  0  0  0  0  0  0  0
   57.0317   -5.9852   -4.9585 C   0  0  0  0  0  0  0  0  0  0  0  0
   56.7004   -7.3754   -4.3729 C   0  0  0  0  0  0  0  0  0  0  0  0
   58.3766   -7.3772   -2.5198 C   0  0  0  0  0  0  0  0  0  0  0  0
   62.8718   -9.3122   -1.7167 C   0  0  0  0  0  0  0  0  0  0  0  0
   61.4065   -9.4643   -1.6343 C   0  0  0  0  0  0  0  0  0  0  0  0
   60.1863   -9.5760   -1.5856 C   0  0  0  0  0  0  0  0  0  0  0  0
   52.4527   -5.0246   -6.8080 C   0  0  0  0  0  0  0  0  0  0  0  0
   51.7215   -6.2185   -6.9038 C   0  0  0  0  0  0  0  0  0  0  0  0
   50.3636   -6.2420   -6.9655 C   0  0  0  0  0  0  0  0  0  0  0  0
   49.6738   -5.0686   -6.9335 C   0  0  0  0  0  0  0  0  0  0  0  0
   50.3602   -3.8661   -6.8369 C   0  0  0  0  0  0  0  0  0  0  0  0
   51.7311   -3.8662   -6.7769 C   0  0  0  0  0  0  0  0  0  0  0  0
   49.5607   -2.6205   -6.7921 C   0  0  0  0  0  0  0  0  0  0  0  0
   48.4931   -2.7526   -7.6632 F   0  0  0  0  0  0  0  0  0  0  0  0
   49.1396   -2.3018   -5.5137 F   0  0  0  0  0  0  0  0  0  0  0  0
   50.3533   -1.5873   -7.2745 F   0  0  0  0  0  0  0  0  0  0  0  0
 23 24  1  0  0  0
 24 25  3  0  0  0
 25 13  1  0  0  0
 13 14  2  0  0  0
 13 15  1  0  0  0
 15 16  1  0  0  0
 16 17  1  0  0  0
 18 17  1  0  0  0
 18 19  1  0  0  0
 19 20  1  0  0  0
 20 21  1  0  0  0
 20  1  1  0  0  0
  1  2  2  0  0  0
  2  3  1  0  0  0
  3 26  1  0  0  0
 26 27  2  0  0  0
 27 28  1  0  0  0
 28 29  2  0  0  0
 29 30  1  0  0  0
 30 31  2  0  0  0
 30 32  1  0  0  0
 32 33  1  0  0  0
 32 34  1  0  0  0
 32 35  1  0  0  0
  3  4  2  0  0  0
  4  5  1  0  0  0
  5  6  1  0  0  0
  5  7  2  0  0  0
  7  8  1  0  0  0
  8  9  2  0  0  0
  9 10  1  0  0  0
 18 22  1  0  0  0
 22 15  1  0  0  0
 21 18  1  0  0  0
 10  1  1  0  0  0
 31 26  1  0  0  0
 10  4  1  0  0  0
  6 11  1  0  0  0
  6 12  1  0  0  0
M  END
> <minimizedAffinity>
-9.31265

> <CNNscore>
0.2196676433

> <CNNaffinity>
6.8696851730

> <CNN_VS>
1.5090475082

> <CNNaffinity_variance>
0.1221260205

$$$$
[H]c1c([H])c(F)c([H])c(C2(c3c([H])c([H])c([H])c(F)c3[H])C([H])([H])C([H])([H])N(C(=O)OC(C([H])([H])[H])(C([H])([H])[H])C([H])([H])[H])C([H])([H])C2([H])[H])c1[H]


 27 29  0  0  0  0  0  0  0  0999 V2000
   60.1582   -3.4871  -14.5959 C   0  0  0  0  0  0  0  0  0  0  0  0
   59.9375   -4.2541  -15.5740 O   0  0  0  0  0  0  0  0  0  0  0  0
   59.7017   -3.9062  -13.3258 N   0  0  0  0  0  0  0  0  0  0  0  0
   59.8946   -3.1146  -12.1158 C   0  0  0  0  0  0  0  0  0  0  0  0
   58.5622   -2.8555  -11.4744 C   0  0  0  0  0  0  0  0  0  0  0  0
   57.7985   -4.1232  -11.1779 C   0  0  0  0  0  0  0  0  0  0  0  0
   57.6620   -4.8377  -12.5115 C   0  0  0  0  0  0  0  0  0  0  0  0
   59.0031   -5.1632  -13.1348 C   0  0  0  0  0  0  0  0  0  0  0  0
   58.4641   -5.0006  -10.1893 C   0  0  0  0  0  0  0  0  0  0  0  0
   58.0245   -5.1690   -8.8910 C   0  0  0  0  0  0  0  0  0  0  0  0
   58.6498   -5.9813   -7.9766 C   0  0  0  0  0  0  0  0  0  0  0  0
   59.7658   -6.6710   -8.3404 C   0  0  0  0  0  0  0  0  0  0  0  0
   60.2443   -6.5379   -9.6222 C   0  0  0  0  0  0  0  0  0  0  0  0
   61.3542   -7.2353   -9.9550 F   0  0  0  0  0  0  0  0  0  0  0  0
   59.5918   -5.7043  -10.5389 C   0  0  0  0  0  0  0  0  0  0  0  0
   56.4420   -3.8209  -10.7117 C   0  0  0  0  0  0  0  0  0  0  0  0
   55.3341   -4.1209  -11.4779 C   0  0  0  0  0  0  0  0  0  0  0  0
   54.0464   -3.8384  -11.0430 C   0  0  0  0  0  0  0  0  0  0  0  0
   53.8205   -3.2473   -9.8290 C   0  0  0  0  0  0  0  0  0  0  0  0
   54.9013   -2.9345   -9.0392 C   0  0  0  0  0  0  0  0  0  0  0  0
   54.7611   -2.3479   -7.8248 F   0  0  0  0  0  0  0  0  0  0  0  0
   56.1628   -3.2204   -9.4847 C   0  0  0  0  0  0  0  0  0  0  0  0
   60.8184   -2.3203  -14.8501 O   0  0  0  0  0  0  0  0  0  0  0  0
   62.5600   -1.0711  -13.6959 C   0  0  0  0  0  0  0  0  0  0  0  0
   62.1928   -2.0915  -14.7259 C   0  0  0  0  0  0  0  0  0  0  0  0
   62.8508   -1.6869  -16.0352 C   0  0  0  0  0  0  0  0  0  0  0  0
   62.8300   -3.4146  -14.2768 C   0  0  0  0  0  0  0  0  0  0  0  0
 24 25  1  0  0  0
 25 26  1  0  0  0
 25 27  1  0  0  0
 25 23  1  0  0  0
 23  1  1  0  0  0
  1  2  2  0  0  0
  1  3  1  0  0  0
  3  4  1  0  0  0
  4  5  1  0  0  0
  5  6  1  0  0  0
  6  7  1  0  0  0
  7  8  1  0  0  0
  6  9  1  0  0  0
  9 10  2  0  0  0
 10 11  1  0  0  0
 11 12  2  0  0  0
 12 13  1  0  0  0
 13 14  1  0  0  0
 13 15  2  0  0  0
  6 16  1  0  0  0
 16 17  2  0  0  0
 17 18  1  0  0  0
 18 19  2  0  0  0
 19 20  1  0  0  0
 20 21  1  0  0  0
 20 22  2  0  0  0
  8  3  1  0  0  0
 15  9  1  0  0  0
 22 16  1  0  0  0
M  END
> <minimizedAffinity>
5.98383

> <CNNscore>
0.5272543430

> <CNNaffinity>
5.1460652351

> <CNN_VS>
2.7132852077

> <CNNaffinity_variance>
0.4556048810

$$$$
[H]c1c([H])c(F)c([H])c(C2(c3c([H])c([H])c([H])c(F)c3[H])C([H])([H])C([H])([H])N(C(=O)OC(C([H])([H])[H])(C([H])([H])[H])C([H])([H])[H])C([H])([H])C2([H])[H])c1[H]


 27 29  0  0  0  0  0  0  0  0999 V2000
   63.1663   -1.9708  -16.0148 C   0  0  0  0  0  0  0  0  0  0  0  0
   63.2901   -2.4687  -17.1682 O   0  0  0  0  0  0  0  0  0  0  0  0
   62.5906   -2.7856  -15.0139 N   0  0  0  0  0  0  0  0  0  0  0  0
   62.3938   -2.3317  -13.6415 C   0  0  0  0  0  0  0  0  0  0  0  0
   60.9445   -2.4715  -13.2757 C   0  0  0  0  0  0  0  0  0  0  0  0
   60.4260   -3.8766  -13.4625 C   0  0  0  0  0  0  0  0  0  0  0  0
   60.6828   -4.2149  -14.9209 C   0  0  0  0  0  0  0  0  0  0  0  0
   62.1513   -4.1418  -15.2832 C   0  0  0  0  0  0  0  0  0  0  0  0
   61.0758   -4.8719  -12.5808 C   0  0  0  0  0  0  0  0  0  0  0  0
   60.5762   -5.2528  -11.3510 C   0  0  0  0  0  0  0  0  0  0  0  0
   61.1868   -6.1738  -10.5350 C   0  0  0  0  0  0  0  0  0  0  0  0
   62.3491   -6.7606  -10.9331 C   0  0  0  0  0  0  0  0  0  0  0  0
   62.8881   -6.4159  -12.1498 C   0  0  0  0  0  0  0  0  0  0  0  0
   64.0429   -7.0153  -12.5187 F   0  0  0  0  0  0  0  0  0  0  0  0
   62.2495   -5.4744  -12.9663 C   0  0  0  0  0  0  0  0  0  0  0  0
   58.9755   -3.9316  -13.2577 C   0  0  0  0  0  0  0  0  0  0  0  0
   58.4330   -4.3656  -12.0654 C   0  0  0  0  0  0  0  0  0  0  0  0
   57.0606   -4.4199  -11.8636 C   0  0  0  0  0  0  0  0  0  0  0  0
   56.1832   -4.0427  -12.8445 C   0  0  0  0  0  0  0  0  0  0  0  0
   56.6887   -3.6048  -14.0455 C   0  0  0  0  0  0  0  0  0  0  0  0
   55.8861   -3.2143  -15.0662 F   0  0  0  0  0  0  0  0  0  0  0  0
   58.0440   -3.5584  -14.2258 C   0  0  0  0  0  0  0  0  0  0  0  0
   63.5991   -0.6893  -15.8348 O   0  0  0  0  0  0  0  0  0  0  0  0
   65.7259   -0.8992  -14.6693 C   0  0  0  0  0  0  0  0  0  0  0  0
   64.9271   -0.2568  -15.7584 C   0  0  0  0  0  0  0  0  0  0  0  0
   65.0557    1.2497  -15.6014 C   0  0  0  0  0  0  0  0  0  0  0  0
   65.6027   -0.6438  -17.0821 C   0  0  0  0  0  0  0  0  0  0  0  0
 24 25  1  0  0  0
 25 26  1  0  0  0
 25 27  1  0  0  0
 25 23  1  0  0  0
 23  1  1  0  0  0
  1  2  2  0  0  0
  1  3  1  0  0  0
  3  4  1  0  0  0
  4  5  1  0  0  0
  5  6  1  0  0  0
  6  7  1  0  0  0
  7  8  1  0  0  0
  6  9  1  0  0  0
  9 10  2  0  0  0
 10 11  1  0  0  0
 11 12  2  0  0  0
 12 13  1  0  0  0
 13 14  1  0  0  0
 13 15  2  0  0  0
  6 16  1  0  0  0
 16 17  2  0  0  0
 17 18  1  0  0  0
 18 19  2  0  0  0
 19 20  1  0  0  0
 20 21  1  0  0  0
 20 22  2  0  0  0
  8  3  1  0  0  0
 15  9  1  0  0  0
 22 16  1  0  0  0
M  END
> <minimizedAffinity>
-0.31623

> <CNNscore>
0.4096863568

> <CNNaffinity>
4.6133189201

> <CNN_VS>
1.8900138140

> <CNNaffinity_variance>
0.0526088178

$$$$
[H]c1c([H])c(F)c([H])c(C2(c3c([H])c([H])c([H])c(F)c3[H])C([H])([H])C([H])([H])N(C(=O)OC(C([H])([H])[H])(C([H])([H])[H])C([H])([H])[H])C([H])([H])C2([H])[H])c1[H]


 27 29  0  0  0  0  0  0  0  0999 V2000
   57.8655   -7.5168   -2.9966 C   0  0  0  0  0  0  0  0  0  0  0  0
   58.2727   -7.6923   -4.1785 O   0  0  0  0  0  0  0  0  0  0  0  0
   56.4994   -7.7681   -2.7361 N   0  0  0  0  0  0  0  0  0  0  0  0
   55.9039   -7.6059   -1.4143 C   0  0  0  0  0  0  0  0  0  0  0  0
   54.7490   -6.6510   -1.5041 C   0  0  0  0  0  0  0  0  0  0  0  0
   53.7144   -7.0765   -2.5172 C   0  0  0  0  0  0  0  0  0  0  0  0
   54.4603   -7.1972   -3.8350 C   0  0  0  0  0  0  0  0  0  0  0  0
   55.5859   -8.2083   -3.7736 C   0  0  0  0  0  0  0  0  0  0  0  0
   53.0471   -8.3549   -2.1842 C   0  0  0  0  0  0  0  0  0  0  0  0
   53.3877   -9.5697   -2.7457 C   0  0  0  0  0  0  0  0  0  0  0  0
   52.7610  -10.7522   -2.4359 C   0  0  0  0  0  0  0  0  0  0  0  0
   51.7453  -10.7589   -1.5294 C   0  0  0  0  0  0  0  0  0  0  0  0
   51.3678   -9.5752   -0.9413 C   0  0  0  0  0  0  0  0  0  0  0  0
   50.3562   -9.6128   -0.0445 F   0  0  0  0  0  0  0  0  0  0  0  0
   52.0198   -8.3807   -1.2714 C   0  0  0  0  0  0  0  0  0  0  0  0
   52.6955   -6.0375   -2.6940 C   0  0  0  0  0  0  0  0  0  0  0  0
   52.4655   -5.0827   -1.7246 C   0  0  0  0  0  0  0  0  0  0  0  0
   51.5031   -4.0953   -1.8849 C   0  0  0  0  0  0  0  0  0  0  0  0
   50.7376   -4.0270   -3.0179 C   0  0  0  0  0  0  0  0  0  0  0  0
   50.9397   -4.9624   -4.0048 C   0  0  0  0  0  0  0  0  0  0  0  0
   50.2227   -4.9627   -5.1556 F   0  0  0  0  0  0  0  0  0  0  0  0
   51.8927   -5.9280   -3.8288 C   0  0  0  0  0  0  0  0  0  0  0  0
   58.7797   -7.0999   -2.0733 O   0  0  0  0  0  0  0  0  0  0  0  0
   60.3577   -7.1863   -0.2219 C   0  0  0  0  0  0  0  0  0  0  0  0
   59.6250   -7.9091   -1.3071 C   0  0  0  0  0  0  0  0  0  0  0  0
   60.6518   -8.6576   -2.1415 C   0  0  0  0  0  0  0  0  0  0  0  0
   58.7395   -8.9553   -0.6145 C   0  0  0  0  0  0  0  0  0  0  0  0
 24 25  1  0  0  0
 25 26  1  0  0  0
 25 27  1  0  0  0
 25 23  1  0  0  0
 23  1  1  0  0  0
  1  2  2  0  0  0
  1  3  1  0  0  0
  3  4  1  0  0  0
  4  5  1  0  0  0
  5  6  1  0  0  0
  6  7  1  0  0  0
  7  8  1  0  0  0
  6  9  1  0  0  0
  9 10  2  0  0  0
 10 11  1  0  0  0
 11 12  2  0  0  0
 12 13  1  0  0  0
 13 14  1  0  0  0
 13 15  2  0  0  0
  6 16  1  0  0  0
 16 17  2  0  0  0
 17 18  1  0  0  0
 18 19  2  0  0  0
 19 20  1  0  0  0
 20 21  1  0  0  0
 20 22  2  0  0  0
  8  3  1  0  0  0
 15  9  1  0  0  0
 22 16  1  0  0  0
M  END
> <minimizedAffinity>
0.28863

> <CNNscore>
0.3938022256

> <CNNaffinity>
5.6320915222

> <CNN_VS>
2.2179300785

> <CNNaffinity_variance>
1.2164314985

$$$$
[H]c1c([H])c(F)c([H])c(C2(c3c([H])c([H])c([H])c(F)c3[H])C([H])([H])C([H])([H])N(C(=O)OC(C([H])([H])[H])(C([H])([H])[H])C([H])([H])[H])C([H])([H])C2([H])[H])c1[H]


 27 29  0  0  0  0  0  0  0  0999 V2000
   54.7258   -4.7798  -10.0658 C   0  0  0  0  0  0  0  0  0  0  0  0
   54.3362   -5.6061  -10.9371 O   0  0  0  0  0  0  0  0  0  0  0  0
   54.2328   -4.9412   -8.7512 N   0  0  0  0  0  0  0  0  0  0  0  0
   54.6061   -4.0567   -7.6528 C   0  0  0  0  0  0  0  0  0  0  0  0
   53.3656   -3.4680   -7.0460 C   0  0  0  0  0  0  0  0  0  0  0  0
   52.3827   -4.5178   -6.5877 C   0  0  0  0  0  0  0  0  0  0  0  0
   52.0761   -5.3536   -7.8185 C   0  0  0  0  0  0  0  0  0  0  0  0
   53.3130   -6.0064   -8.3990 C   0  0  0  0  0  0  0  0  0  0  0  0
   52.8959   -5.3764   -5.4969 C   0  0  0  0  0  0  0  0  0  0  0  0
   54.2358   -5.5173   -5.1942 C   0  0  0  0  0  0  0  0  0  0  0  0
   54.7061   -6.3199   -4.1834 C   0  0  0  0  0  0  0  0  0  0  0  0
   53.8275   -7.0272   -3.4208 C   0  0  0  0  0  0  0  0  0  0  0  0
   52.4819   -6.9214   -3.6815 C   0  0  0  0  0  0  0  0  0  0  0  0
   51.6332   -7.6353   -2.9076 F   0  0  0  0  0  0  0  0  0  0  0  0
   52.0236   -6.0977   -4.7170 C   0  0  0  0  0  0  0  0  0  0  0  0
   51.1219   -3.9043   -6.1600 C   0  0  0  0  0  0  0  0  0  0  0  0
   50.5368   -2.8841   -6.8819 C   0  0  0  0  0  0  0  0  0  0  0  0
   49.3427   -2.2986   -6.4838 C   0  0  0  0  0  0  0  0  0  0  0  0
   48.6921   -2.7113   -5.3522 C   0  0  0  0  0  0  0  0  0  0  0  0
   49.2465   -3.7258   -4.6085 C   0  0  0  0  0  0  0  0  0  0  0  0
   48.6640   -4.1906   -3.4757 F   0  0  0  0  0  0  0  0  0  0  0  0
   50.4238   -4.2905   -5.0165 C   0  0  0  0  0  0  0  0  0  0  0  0
   55.5890   -3.8030  -10.4689 O   0  0  0  0  0  0  0  0  0  0  0  0
   57.7441   -4.9269  -10.6025 C   0  0  0  0  0  0  0  0  0  0  0  0
   56.7625   -3.9760  -11.2101 C   0  0  0  0  0  0  0  0  0  0  0  0
   57.4911   -2.6708  -11.4869 C   0  0  0  0  0  0  0  0  0  0  0  0
   56.3548   -4.5750  -12.5641 C   0  0  0  0  0  0  0  0  0  0  0  0
 24 25  1  0  0  0
 25 26  1  0  0  0
 25 27  1  0  0  0
 25 23  1  0  0  0
 23  1  1  0  0  0
  1  2  2  0  0  0
  1  3  1  0  0  0
  3  4  1  0  0  0
  4  5  1  0  0  0
  5  6  1  0  0  0
  6  7  1  0  0  0
  7  8  1  0  0  0
  6  9  1  0  0  0
  9 10  2  0  0  0
 10 11  1  0  0  0
 11 12  2  0  0  0
 12 13  1  0  0  0
 13 14  1  0  0  0
 13 15  2  0  0  0
  6 16  1  0  0  0
 16 17  2  0  0  0
 17 18  1  0  0  0
 18 19  2  0  0  0
 19 20  1  0  0  0
 20 21  1  0  0  0
 20 22  2  0  0  0
  8  3  1  0  0  0
 15  9  1  0  0  0
 22 16  1  0  0  0
M  END
> <minimizedAffinity>
-2.59021

> <CNNscore>
0.3835763633

> <CNNaffinity>
6.3053350449

> <CNN_VS>
2.4185774326

> <CNNaffinity_variance>
0.4167805314

$$$$
[H]c1c([H])c(F)c([H])c(C2(c3c([H])c([H])c([H])c(F)c3[H])C([H])([H])C([H])([H])N(C(=O)OC(C([H])([H])[H])(C([H])([H])[H])C([H])([H])[H])C([H])([H])C2([H])[H])c1[H]


 27 29  0  0  0  0  0  0  0  0999 V2000
   55.8357   -3.8813  -10.6212 C   0  0  0  0  0  0  0  0  0  0  0  0
   56.6991   -2.9689  -10.4955 O   0  0  0  0  0  0  0  0  0  0  0  0
   54.8613   -3.9980   -9.6042 N   0  0  0  0  0  0  0  0  0  0  0  0
   53.8083   -5.0073   -9.6306 C   0  0  0  0  0  0  0  0  0  0  0  0
   53.8709   -5.8228   -8.3717 C   0  0  0  0  0  0  0  0  0  0  0  0
   53.7839   -4.9799   -7.1227 C   0  0  0  0  0  0  0  0  0  0  0  0
   54.9310   -3.9888   -7.2196 C   0  0  0  0  0  0  0  0  0  0  0  0
   54.8399   -3.1152   -8.4532 C   0  0  0  0  0  0  0  0  0  0  0  0
   52.4964   -4.2648   -6.9768 C   0  0  0  0  0  0  0  0  0  0  0  0
   52.1393   -3.1622   -7.7275 C   0  0  0  0  0  0  0  0  0  0  0  0
   50.9445   -2.4998   -7.5838 C   0  0  0  0  0  0  0  0  0  0  0  0
   50.0426   -2.9304   -6.6592 C   0  0  0  0  0  0  0  0  0  0  0  0
   50.3501   -4.0246   -5.8861 C   0  0  0  0  0  0  0  0  0  0  0  0
   49.4348   -4.4294   -4.9765 F   0  0  0  0  0  0  0  0  0  0  0  0
   51.5740   -4.6853   -6.0486 C   0  0  0  0  0  0  0  0  0  0  0  0
   54.0180   -5.7920   -5.9250 C   0  0  0  0  0  0  0  0  0  0  0  0
   54.6965   -6.9918   -5.9903 C   0  0  0  0  0  0  0  0  0  0  0  0
   54.9227   -7.7661   -4.8605 C   0  0  0  0  0  0  0  0  0  0  0  0
   54.4796   -7.3694   -3.6274 C   0  0  0  0  0  0  0  0  0  0  0  0
   53.7997   -6.1791   -3.5251 C   0  0  0  0  0  0  0  0  0  0  0  0
   53.3288   -5.7172   -2.3404 F   0  0  0  0  0  0  0  0  0  0  0  0
   53.5863   -5.4297   -4.6496 C   0  0  0  0  0  0  0  0  0  0  0  0
   55.9183   -4.6753  -11.7278 O   0  0  0  0  0  0  0  0  0  0  0  0
   58.0189   -4.1802  -12.8539 C   0  0  0  0  0  0  0  0  0  0  0  0
   56.5365   -4.3581  -12.9418 C   0  0  0  0  0  0  0  0  0  0  0  0
   55.9580   -3.1154  -13.5990 C   0  0  0  0  0  0  0  0  0  0  0  0
   56.2939   -5.5400  -13.8919 C   0  0  0  0  0  0  0  0  0  0  0  0
 24 25  1  0  0  0
 25 26  1  0  0  0
 25 27  1  0  0  0
 25 23  1  0  0  0
 23  1  1  0  0  0
  1  2  2  0  0  0
  1  3  1  0  0  0
  3  4  1  0  0  0
  4  5  1  0  0  0
  5  6  1  0  0  0
  6  7  1  0  0  0
  7  8  1  0  0  0
  6  9  1  0  0  0
  9 10  2  0  0  0
 10 11  1  0  0  0
 11 12  2  0  0  0
 12 13  1  0  0  0
 13 14  1  0  0  0
 13 15  2  0  0  0
  6 16  1  0  0  0
 16 17  2  0  0  0
 17 18  1  0  0  0
 18 19  2  0  0  0
 19 20  1  0  0  0
 20 21  1  0  0  0
 20 22  2  0  0  0
  8  3  1  0  0  0
 15  9  1  0  0  0
 22 16  1  0  0  0
M  END
> <minimizedAffinity>
-7.02999

> <CNNscore>
0.3721259534

> <CNNaffinity>
6.6063156128

> <CNN_VS>
2.4583814144

> <CNNaffinity_variance>
0.2501371503

$$$$
[H]c1c([H])c(F)c([H])c(C2(c3c([H])c([H])c([H])c(F)c3[H])C([H])([H])C([H])([H])N(C(=O)OC(C([H])([H])[H])(C([H])([H])[H])C([H])([H])[H])C([H])([H])C2([H])[H])c1[H]


 27 29  0  0  0  0  0  0  0  0999 V2000
   56.9794   -3.9890  -14.8395 C   0  0  0  0  0  0  0  0  0  0  0  0
   56.5051   -4.9272  -15.5382 O   0  0  0  0  0  0  0  0  0  0  0  0
   57.0431   -4.1881  -13.4418 N   0  0  0  0  0  0  0  0  0  0  0  0
   57.5708   -3.1848  -12.5236 C   0  0  0  0  0  0  0  0  0  0  0  0
   56.5311   -2.8622  -11.4899 C   0  0  0  0  0  0  0  0  0  0  0  0
   56.0495   -4.0821  -10.7428 C   0  0  0  0  0  0  0  0  0  0  0  0
   55.5232   -5.0298  -11.8069 C   0  0  0  0  0  0  0  0  0  0  0  0
   56.5839   -5.4143  -12.8169 C   0  0  0  0  0  0  0  0  0  0  0  0
   57.1036   -4.7424   -9.9408 C   0  0  0  0  0  0  0  0  0  0  0  0
   58.3238   -5.1391  -10.4514 C   0  0  0  0  0  0  0  0  0  0  0  0
   59.2963   -5.7561   -9.7027 C   0  0  0  0  0  0  0  0  0  0  0  0
   59.0744   -6.0033   -8.3824 C   0  0  0  0  0  0  0  0  0  0  0  0
   57.8752   -5.6275   -7.8254 C   0  0  0  0  0  0  0  0  0  0  0  0
   57.6833   -5.8856   -6.5118 F   0  0  0  0  0  0  0  0  0  0  0  0
   56.8970   -4.9999   -8.6066 C   0  0  0  0  0  0  0  0  0  0  0  0
   54.9213   -3.7494   -9.8679 C   0  0  0  0  0  0  0  0  0  0  0  0
   54.6262   -2.4419   -9.5398 C   0  0  0  0  0  0  0  0  0  0  0  0
   53.5593   -2.1188   -8.7126 C   0  0  0  0  0  0  0  0  0  0  0  0
   52.7506   -3.0893   -8.1850 C   0  0  0  0  0  0  0  0  0  0  0  0
   53.0152   -4.4031   -8.4909 C   0  0  0  0  0  0  0  0  0  0  0  0
   52.2616   -5.4217   -8.0082 F   0  0  0  0  0  0  0  0  0  0  0  0
   54.0711   -4.7021   -9.3077 C   0  0  0  0  0  0  0  0  0  0  0  0
   57.3895   -2.8643  -15.4943 O   0  0  0  0  0  0  0  0  0  0  0  0
   58.6061   -1.4140  -17.0248 C   0  0  0  0  0  0  0  0  0  0  0  0
   58.4641   -2.7576  -16.3833 C   0  0  0  0  0  0  0  0  0  0  0  0
   58.4282   -3.7989  -17.4902 C   0  0  0  0  0  0  0  0  0  0  0  0
   59.7455   -2.9907  -15.5695 C   0  0  0  0  0  0  0  0  0  0  0  0
 24 25  1  0  0  0
 25 26  1  0  0  0
 25 27  1  0  0  0
 25 23  1  0  0  0
 23  1  1  0  0  0
  1  2  2  0  0  0
  1  3  1  0  0  0
  3  4  1  0  0  0
  4  5  1  0  0  0
  5  6  1  0  0  0
  6  7  1  0  0  0
  7  8  1  0  0  0
  6  9  1  0  0  0
  9 10  2  0  0  0
 10 11  1  0  0  0
 11 12  2  0  0  0
 12 13  1  0  0  0
 13 14  1  0  0  0
 13 15  2  0  0  0
  6 16  1  0  0  0
 16 17  2  0  0  0
 17 18  1  0  0  0
 18 19  2  0  0  0
 19 20  1  0  0  0
 20 21  1  0  0  0
 20 22  2  0  0  0
  8  3  1  0  0  0
 15  9  1  0  0  0
 22 16  1  0  0  0
M  END
> <minimizedAffinity>
-4.03518

> <CNNscore>
0.3719016314

> <CNNaffinity>
5.7141966820

> <CNN_VS>
2.1251189709

> <CNNaffinity_variance>
0.1704463512

$$$$
[H]c1c([H])c(F)c([H])c(C2(c3c([H])c([H])c([H])c(F)c3[H])C([H])([H])C([H])([H])N(C(=O)OC(C([H])([H])[H])(C([H])([H])[H])C([H])([H])[H])C([H])([H])C2([H])[H])c1[H]


 27 29  0  0  0  0  0  0  0  0999 V2000
   56.2467   -4.1316  -11.6236 C   0  0  0  0  0  0  0  0  0  0  0  0
   55.8766   -4.9072  -12.5482 O   0  0  0  0  0  0  0  0  0  0  0  0
   55.6778   -4.3273  -10.3448 N   0  0  0  0  0  0  0  0  0  0  0  0
   56.0214   -3.5020   -9.1920 C   0  0  0  0  0  0  0  0  0  0  0  0
   54.7708   -2.8930   -8.6273 C   0  0  0  0  0  0  0  0  0  0  0  0
   53.7289   -3.9235   -8.2660 C   0  0  0  0  0  0  0  0  0  0  0  0
   53.4607   -4.6973   -9.5454 C   0  0  0  0  0  0  0  0  0  0  0  0
   54.7040   -5.3713  -10.0867 C   0  0  0  0  0  0  0  0  0  0  0  0
   54.1521   -4.8435   -7.1868 C   0  0  0  0  0  0  0  0  0  0  0  0
   53.7359   -6.1565   -7.0878 C   0  0  0  0  0  0  0  0  0  0  0  0
   54.1286   -7.0041   -6.0806 C   0  0  0  0  0  0  0  0  0  0  0  0
   54.9738   -6.5541   -5.1127 C   0  0  0  0  0  0  0  0  0  0  0  0
   55.4175   -5.2541   -5.1659 C   0  0  0  0  0  0  0  0  0  0  0  0
   56.2564   -4.8354   -4.1912 F   0  0  0  0  0  0  0  0  0  0  0  0
   55.0048   -4.4065   -6.2013 C   0  0  0  0  0  0  0  0  0  0  0  0
   52.4687   -3.2817   -7.8801 C   0  0  0  0  0  0  0  0  0  0  0  0
   52.0535   -2.1022   -8.4636 C   0  0  0  0  0  0  0  0  0  0  0  0
   50.8613   -1.4888   -8.1041 C   0  0  0  0  0  0  0  0  0  0  0  0
   50.0429   -2.0316   -7.1502 C   0  0  0  0  0  0  0  0  0  0  0  0
   50.4252   -3.2065   -6.5477 C   0  0  0  0  0  0  0  0  0  0  0  0
   49.6705   -3.8068   -5.5945 F   0  0  0  0  0  0  0  0  0  0  0  0
   51.6036   -3.7963   -6.9151 C   0  0  0  0  0  0  0  0  0  0  0  0
   57.1637   -3.1717  -11.9391 O   0  0  0  0  0  0  0  0  0  0  0  0
   59.3888   -2.2521  -12.2983 C   0  0  0  0  0  0  0  0  0  0  0  0
   58.4225   -3.3730  -12.5148 C   0  0  0  0  0  0  0  0  0  0  0  0
   58.3583   -3.6484  -14.0084 C   0  0  0  0  0  0  0  0  0  0  0  0
   59.0319   -4.6114  -11.8413 C   0  0  0  0  0  0  0  0  0  0  0  0
 24 25  1  0  0  0
 25 26  1  0  0  0
 25 27  1  0  0  0
 25 23  1  0  0  0
 23  1  1  0  0  0
  1  2  2  0  0  0
  1  3  1  0  0  0
  3  4  1  0  0  0
  4  5  1  0  0  0
  5  6  1  0  0  0
  6  7  1  0  0  0
  7  8  1  0  0  0
  6  9  1  0  0  0
  9 10  2  0  0  0
 10 11  1  0  0  0
 11 12  2  0  0  0
 12 13  1  0  0  0
 13 14  1  0  0  0
 13 15  2  0  0  0
  6 16  1  0  0  0
 16 17  2  0  0  0
 17 18  1  0  0  0
 18 19  2  0  0  0
 19 20  1  0  0  0
 20 21  1  0  0  0
 20 22  2  0  0  0
  8  3  1  0  0  0
 15  9  1  0  0  0
 22 16  1  0  0  0
M  END
> <minimizedAffinity>
-3.22514

> <CNNscore>
0.3515363932

> <CNNaffinity>
6.2073664665

> <CNN_VS>
2.1821153164

> <CNNaffinity_variance>
0.3279076219

$$$$
[H]c1c([H])c(F)c([H])c(C2(c3c([H])c([H])c([H])c(F)c3[H])C([H])([H])C([H])([H])N(C(=O)OC(C([H])([H])[H])(C([H])([H])[H])C([H])([H])[H])C([H])([H])C2([H])[H])c1[H]


 27 29  0  0  0  0  0  0  0  0999 V2000
   56.2488   -3.7376  -11.1150 C   0  0  0  0  0  0  0  0  0  0  0  0
   57.0692   -2.7787  -11.0808 O   0  0  0  0  0  0  0  0  0  0  0  0
   55.2805   -3.8009  -10.0875 N   0  0  0  0  0  0  0  0  0  0  0  0
   54.2752   -4.8553  -10.0127 C   0  0  0  0  0  0  0  0  0  0  0  0
   54.3749   -5.5426   -8.6818 C   0  0  0  0  0  0  0  0  0  0  0  0
   54.2487   -4.5887   -7.5190 C   0  0  0  0  0  0  0  0  0  0  0  0
   55.3489   -3.5598   -7.7151 C   0  0  0  0  0  0  0  0  0  0  0  0
   55.2180   -2.8137   -9.0263 C   0  0  0  0  0  0  0  0  0  0  0  0
   52.9296   -3.9228   -7.4369 C   0  0  0  0  0  0  0  0  0  0  0  0
   52.5719   -2.8276   -8.1982 C   0  0  0  0  0  0  0  0  0  0  0  0
   51.3473   -2.2109   -8.1138 C   0  0  0  0  0  0  0  0  0  0  0  0
   50.4144   -2.6824   -7.2414 C   0  0  0  0  0  0  0  0  0  0  0  0
   50.7211   -3.7712   -6.4604 C   0  0  0  0  0  0  0  0  0  0  0  0
   49.7747   -4.2173   -5.6034 F   0  0  0  0  0  0  0  0  0  0  0  0
   51.9756   -4.3850   -6.5619 C   0  0  0  0  0  0  0  0  0  0  0  0
   54.5196   -5.2706   -6.2499 C   0  0  0  0  0  0  0  0  0  0  0  0
   54.0792   -6.5573   -6.0160 C   0  0  0  0  0  0  0  0  0  0  0  0
   54.3323   -7.2099   -4.8172 C   0  0  0  0  0  0  0  0  0  0  0  0
   55.0334   -6.6009   -3.8114 C   0  0  0  0  0  0  0  0  0  0  0  0
   55.4875   -5.3187   -4.0099 C   0  0  0  0  0  0  0  0  0  0  0  0
   56.1885   -4.6473   -3.0631 F   0  0  0  0  0  0  0  0  0  0  0  0
   55.2283   -4.6916   -5.1978 C   0  0  0  0  0  0  0  0  0  0  0  0
   56.3683   -4.6294  -12.1408 O   0  0  0  0  0  0  0  0  0  0  0  0
   55.7927   -3.1226  -13.9640 C   0  0  0  0  0  0  0  0  0  0  0  0
   56.5427   -4.3289  -13.4957 C   0  0  0  0  0  0  0  0  0  0  0  0
   56.1820   -5.4851  -14.4143 C   0  0  0  0  0  0  0  0  0  0  0  0
   58.0337   -4.0228  -13.6999 C   0  0  0  0  0  0  0  0  0  0  0  0
 24 25  1  0  0  0
 25 26  1  0  0  0
 25 27  1  0  0  0
 25 23  1  0  0  0
 23  1  1  0  0  0
  1  2  2  0  0  0
  1  3  1  0  0  0
  3  4  1  0  0  0
  4  5  1  0  0  0
  5  6  1  0  0  0
  6  7  1  0  0  0
  7  8  1  0  0  0
  6  9  1  0  0  0
  9 10  2  0  0  0
 10 11  1  0  0  0
 11 12  2  0  0  0
 12 13  1  0  0  0
 13 14  1  0  0  0
 13 15  2  0  0  0
  6 16  1  0  0  0
 16 17  2  0  0  0
 17 18  1  0  0  0
 18 19  2  0  0  0
 19 20  1  0  0  0
 20 21  1  0  0  0
 20 22  2  0  0  0
  8  3  1  0  0  0
 15  9  1  0  0  0
 22 16  1  0  0  0
M  END
> <minimizedAffinity>
-6.21565

> <CNNscore>
0.3241121769

> <CNNaffinity>
6.5044693947

> <CNN_VS>
2.1081776619

> <CNNaffinity_variance>
0.1988744289

$$$$
[H]c1c([H])c(F)c([H])c(C2(c3c([H])c([H])c([H])c(F)c3[H])C([H])([H])C([H])([H])N(C(=O)OC(C([H])([H])[H])(C([H])([H])[H])C([H])([H])[H])C([H])([H])C2([H])[H])c1[H]


 27 29  0  0  0  0  0  0  0  0999 V2000
   52.6964   -5.5922   -8.1259 C   0  0  0  0  0  0  0  0  0  0  0  0
   52.3960   -6.6324   -8.7750 O   0  0  0  0  0  0  0  0  0  0  0  0
   52.3048   -5.5375   -6.7691 N   0  0  0  0  0  0  0  0  0  0  0  0
   52.5920   -4.3948   -5.9089 C   0  0  0  0  0  0  0  0  0  0  0  0
   51.3081   -3.8730   -5.3318 C   0  0  0  0  0  0  0  0  0  0  0  0
   50.5278   -4.9296   -4.5884 C   0  0  0  0  0  0  0  0  0  0  0  0
   50.2918   -6.0441   -5.5933 C   0  0  0  0  0  0  0  0  0  0  0  0
   51.5835   -6.6228   -6.1314 C   0  0  0  0  0  0  0  0  0  0  0  0
   51.2261   -5.4533   -3.3932 C   0  0  0  0  0  0  0  0  0  0  0  0
   51.8984   -4.6592   -2.4852 C   0  0  0  0  0  0  0  0  0  0  0  0
   52.5488   -5.1520   -1.3802 C   0  0  0  0  0  0  0  0  0  0  0  0
   52.5482   -6.4922   -1.1402 C   0  0  0  0  0  0  0  0  0  0  0  0
   51.8927   -7.3264   -2.0143 C   0  0  0  0  0  0  0  0  0  0  0  0
   51.9089   -8.6526   -1.7500 F   0  0  0  0  0  0  0  0  0  0  0  0
   51.2360   -6.8033   -3.1350 C   0  0  0  0  0  0  0  0  0  0  0  0
   49.2106   -4.4249   -4.1893 C   0  0  0  0  0  0  0  0  0  0  0  0
   48.4645   -5.0534   -3.2133 C   0  0  0  0  0  0  0  0  0  0  0  0
   47.2169   -4.5811   -2.8295 C   0  0  0  0  0  0  0  0  0  0  0  0
   46.6715   -3.4658   -3.4065 C   0  0  0  0  0  0  0  0  0  0  0  0
   47.3872   -2.8142   -4.3826 C   0  0  0  0  0  0  0  0  0  0  0  0
   46.9162   -1.7037   -5.0019 F   0  0  0  0  0  0  0  0  0  0  0  0
   48.6150   -3.2945   -4.7476 C   0  0  0  0  0  0  0  0  0  0  0  0
   53.3731   -4.6113   -8.7905 O   0  0  0  0  0  0  0  0  0  0  0  0
   55.5030   -5.2305   -7.7876 C   0  0  0  0  0  0  0  0  0  0  0  0
   54.7305   -4.2978   -8.6653 C   0  0  0  0  0  0  0  0  0  0  0  0
   54.9722   -2.8828   -8.1652 C   0  0  0  0  0  0  0  0  0  0  0  0
   55.3478   -4.4053  -10.0673 C   0  0  0  0  0  0  0  0  0  0  0  0
 24 25  1  0  0  0
 25 26  1  0  0  0
 25 27  1  0  0  0
 25 23  1  0  0  0
 23  1  1  0  0  0
  1  2  2  0  0  0
  1  3  1  0  0  0
  3  4  1  0  0  0
  4  5  1  0  0  0
  5  6  1  0  0  0
  6  7  1  0  0  0
  7  8  1  0  0  0
  6  9  1  0  0  0
  9 10  2  0  0  0
 10 11  1  0  0  0
 11 12  2  0  0  0
 12 13  1  0  0  0
 13 14  1  0  0  0
 13 15  2  0  0  0
  6 16  1  0  0  0
 16 17  2  0  0  0
 17 18  1  0  0  0
 18 19  2  0  0  0
 19 20  1  0  0  0
 20 21  1  0  0  0
 20 22  2  0  0  0
  8  3  1  0  0  0
 15  9  1  0  0  0
 22 16  1  0  0  0
M  END
> <minimizedAffinity>
-2.08388

> <CNNscore>
0.2737308443

> <CNNaffinity>
6.3412055969

> <CNN_VS>
1.7357835770

> <CNNaffinity_variance>
0.2329082787

$$$$
[H]C#CC([H])([H])[N+]([H])(C([H])([H])[H])C([H])([H])C(=C([H])[H])c1c([H])c([H])c(F)c(Br)c1[H].[H]OC(=O)C(=O)[O-]


 17 17  0  0  0  0  0  0  0  0999 V2000
   53.8908   -3.8577   -8.3790 C   0  0  0  0  0  0  0  0  0  0  0  0
   53.2314   -2.9500   -9.0247 C   0  0  0  0  0  0  0  0  0  0  0  0
   55.2390   -4.2388   -8.8582 C   0  0  0  0  0  0  0  0  0  0  0  0
   56.1066   -4.8721   -7.9555 C   0  0  0  0  0  0  0  0  0  0  0  0
   57.3717   -5.2523   -8.3372 C   0  0  0  0  0  0  0  0  0  0  0  0
   57.8403   -5.0298   -9.6139 C   0  0  0  0  0  0  0  0  0  0  0  0
   59.1068   -5.4226   -9.9581 F   0  0  0  0  0  0  0  0  0  0  0  0
   57.0017   -4.4126  -10.5023 C   0  0  0  0  0  0  0  0  0  0  0  0
   57.6105   -4.0880  -12.2722 Br  0  0  0  0  0  0  0  0  0  0  0  0
   55.7141   -4.0256  -10.1140 C   0  0  0  0  0  0  0  0  0  0  0  0
   53.3388   -4.5152   -7.1924 C   0  0  0  0  0  0  0  0  0  0  0  0
   51.9864   -6.4371   -7.4493 C   0  0  0  0  0  0  0  0  0  0  0  0
   51.9905   -4.9667   -7.3378 N   0  0  0  0  0  0  0  0  0  0  0  0
   51.5600   -4.6441   -8.2205 H   0  0  0  0  0  0  0  0  0  0  0  0
   51.1450   -4.5576   -6.2341 C   0  0  0  0  0  0  0  0  0  0  0  0
   50.4410   -3.3238   -6.5936 C   0  0  0  0  0  0  0  0  0  0  0  0
   49.8576   -2.3026   -6.8703 C   0  0  0  0  0  0  0  0  0  0  0  0
 12 13  1  0  0  0
 13 15  1  0  0  0
 15 16  1  0  0  0
 16 17  3  0  0  0
 13 11  1  0  0  0
 11  1  1  0  0  0
  1  2  2  0  0  0
  1  3  1  0  0  0
  3  4  2  0  0  0
  4  5  1  0  0  0
  5  6  2  0  0  0
  6  7  1  0  0  0
  6  8  1  0  0  0
  8  9  1  0  0  0
  8 10  2  0  0  0
 10  3  1  0  0  0
 13 14  1  0  0  0
M  CHG 1  13   1
M  END
> <minimizedAffinity>
-7.29280

> <CNNscore>
0.3784098923

> <CNNaffinity>
5.3264751434

> <CNN_VS>
2.0155909061

> <CNNaffinity_variance>
0.1402184069

$$$$
[H]C#CC([H])([H])[N+]([H])(C([H])([H])[H])C([H])([H])C(=C([H])[H])c1c([H])c([H])c(F)c(Br)c1[H].[H]OC(=O)C(=O)[O-]


 17 17  0  0  0  0  0  0  0  0999 V2000
   55.1270   -4.6841   -7.5723 C   0  0  0  0  0  0  0  0  0  0  0  0
   55.4957   -4.4009   -6.3642 C   0  0  0  0  0  0  0  0  0  0  0  0
   56.1501   -4.7204   -8.6421 C   0  0  0  0  0  0  0  0  0  0  0  0
   55.8382   -4.1279   -9.8751 C   0  0  0  0  0  0  0  0  0  0  0  0
   56.7439   -4.1267  -10.9097 C   0  0  0  0  0  0  0  0  0  0  0  0
   57.9892   -4.7031  -10.7824 C   0  0  0  0  0  0  0  0  0  0  0  0
   58.8656   -4.6826  -11.8352 F   0  0  0  0  0  0  0  0  0  0  0  0
   58.3034   -5.2839   -9.5835 C   0  0  0  0  0  0  0  0  0  0  0  0
   60.0103   -6.0892   -9.3682 Br  0  0  0  0  0  0  0  0  0  0  0  0
   57.3816   -5.2852   -8.5304 C   0  0  0  0  0  0  0  0  0  0  0  0
   53.7294   -4.9670   -7.9063 C   0  0  0  0  0  0  0  0  0  0  0  0
   52.5997   -3.0488   -8.7020 C   0  0  0  0  0  0  0  0  0  0  0  0
   52.8116   -3.9338   -7.5416 N   0  0  0  0  0  0  0  0  0  0  0  0
   53.1921   -3.3084   -6.8117 H   0  0  0  0  0  0  0  0  0  0  0  0
   51.5388   -4.4560   -7.0859 C   0  0  0  0  0  0  0  0  0  0  0  0
   50.6061   -3.3456   -6.8752 C   0  0  0  0  0  0  0  0  0  0  0  0
   49.8365   -2.4346   -6.6817 C   0  0  0  0  0  0  0  0  0  0  0  0
 12 13  1  0  0  0
 13 15  1  0  0  0
 15 16  1  0  0  0
 16 17  3  0  0  0
 13 11  1  0  0  0
 11  1  1  0  0  0
  1  2  2  0  0  0
  1  3  1  0  0  0
  3  4  2  0  0  0
  4  5  1  0  0  0
  5  6  2  0  0  0
  6  7  1  0  0  0
  6  8  1  0  0  0
  8  9  1  0  0  0
  8 10  2  0  0  0
 10  3  1  0  0  0
 13 14  1  0  0  0
M  CHG 1  13   1
M  END
> <minimizedAffinity>
-6.84532

> <CNNscore>
0.3269934654

> <CNNaffinity>
5.0813179016

> <CNN_VS>
1.6615577936

> <CNNaffinity_variance>
0.1226739660

$$$$
[H]C#CC([H])([H])[N+]([H])(C([H])([H])[H])C([H])([H])C(=C([H])[H])c1c([H])c([H])c(F)c(Br)c1[H].[H]OC(=O)C(=O)[O-]


 17 17  0  0  0  0  0  0  0  0999 V2000
   54.1565   -6.1401   -5.4987 C   0  0  0  0  0  0  0  0  0  0  0  0
   54.7279   -7.2019   -5.9696 C   0  0  0  0  0  0  0  0  0  0  0  0
   53.5263   -5.1891   -6.4425 C   0  0  0  0  0  0  0  0  0  0  0  0
   54.2891   -4.7315   -7.5275 C   0  0  0  0  0  0  0  0  0  0  0  0
   53.7632   -3.8481   -8.4407 C   0  0  0  0  0  0  0  0  0  0  0  0
   52.4730   -3.3764   -8.3316 C   0  0  0  0  0  0  0  0  0  0  0  0
   51.9830   -2.4969   -9.2607 F   0  0  0  0  0  0  0  0  0  0  0  0
   51.7203   -3.8167   -7.2765 C   0  0  0  0  0  0  0  0  0  0  0  0
   49.9368   -3.1899   -7.0910 Br  0  0  0  0  0  0  0  0  0  0  0  0
   52.2554   -4.7158   -6.3471 C   0  0  0  0  0  0  0  0  0  0  0  0
   54.1189   -5.8565   -4.0624 C   0  0  0  0  0  0  0  0  0  0  0  0
   53.6533   -7.6732   -2.6231 C   0  0  0  0  0  0  0  0  0  0  0  0
   53.0764   -6.5286   -3.3522 N   0  0  0  0  0  0  0  0  0  0  0  0
   52.3803   -6.9560   -3.9857 H   0  0  0  0  0  0  0  0  0  0  0  0
   52.3839   -5.6566   -2.4245 C   0  0  0  0  0  0  0  0  0  0  0  0
   51.0625   -5.3253   -2.9644 C   0  0  0  0  0  0  0  0  0  0  0  0
   49.9707   -5.0383   -3.3948 C   0  0  0  0  0  0  0  0  0  0  0  0
 12 13  1  0  0  0
 13 15  1  0  0  0
 15 16  1  0  0  0
 16 17  3  0  0  0
 13 11  1  0  0  0
 11  1  1  0  0  0
  1  2  2  0  0  0
  1  3  1  0  0  0
  3  4  2  0  0  0
  4  5  1  0  0  0
  5  6  2  0  0  0
  6  7  1  0  0  0
  6  8  1  0  0  0
  8  9  1  0  0  0
  8 10  2  0  0  0
 10  3  1  0  0  0
 13 14  1  0  0  0
M  CHG 1  13   1
M  END
> <minimizedAffinity>
-6.34774

> <CNNscore>
0.3055749238

> <CNNaffinity>
5.3183622360

> <CNN_VS>
1.6251581907

> <CNNaffinity_variance>
0.1531319171

$$$$
[H]C#CC([H])([H])[N+]([H])(C([H])([H])[H])C([H])([H])C(=C([H])[H])c1c([H])c([H])c(F)c(Br)c1[H].[H]OC(=O)C(=O)[O-]


 17 17  0  0  0  0  0  0  0  0999 V2000
   52.7506   -4.6706   -7.6119 C   0  0  0  0  0  0  0  0  0  0  0  0
   52.9126   -5.9548   -7.6246 C   0  0  0  0  0  0  0  0  0  0  0  0
   51.5747   -4.1051   -6.9120 C   0  0  0  0  0  0  0  0  0  0  0  0
   50.9405   -2.9901   -7.4804 C   0  0  0  0  0  0  0  0  0  0  0  0
   49.8432   -2.4174   -6.8813 C   0  0  0  0  0  0  0  0  0  0  0  0
   49.3216   -2.9096   -5.7046 C   0  0  0  0  0  0  0  0  0  0  0  0
   48.2269   -2.3128   -5.1367 F   0  0  0  0  0  0  0  0  0  0  0  0
   49.9330   -3.9973   -5.1418 C   0  0  0  0  0  0  0  0  0  0  0  0
   49.2438   -4.7057   -3.5196 Br  0  0  0  0  0  0  0  0  0  0  0  0
   51.0497   -4.5802   -5.7515 C   0  0  0  0  0  0  0  0  0  0  0  0
   53.6965   -3.7669   -8.2705 C   0  0  0  0  0  0  0  0  0  0  0  0
   55.2138   -4.0306  -10.0640 C   0  0  0  0  0  0  0  0  0  0  0  0
   54.9282   -4.3787   -8.6598 N   0  0  0  0  0  0  0  0  0  0  0  0
   54.8724   -5.4109   -8.6605 H   0  0  0  0  0  0  0  0  0  0  0  0
   56.0389   -3.9758   -7.8205 C   0  0  0  0  0  0  0  0  0  0  0  0
   57.2406   -4.7137   -8.2188 C   0  0  0  0  0  0  0  0  0  0  0  0
   58.2381   -5.3212   -8.5280 C   0  0  0  0  0  0  0  0  0  0  0  0
 12 13  1  0  0  0
 13 15  1  0  0  0
 15 16  1  0  0  0
 16 17  3  0  0  0
 13 11  1  0  0  0
 11  1  1  0  0  0
  1  2  2  0  0  0
  1  3  1  0  0  0
  3  4  2  0  0  0
  4  5  1  0  0  0
  5  6  2  0  0  0
  6  7  1  0  0  0
  6  8  1  0  0  0
  8  9  1  0  0  0
  8 10  2  0  0  0
 10  3  1  0  0  0
 13 14  1  0  0  0
M  CHG 1  13   1
M  END
> <minimizedAffinity>
-7.79489

> <CNNscore>
0.2808849514

> <CNNaffinity>
5.3635439873

> <CNN_VS>
1.5065387487

> <CNNaffinity_variance>
0.1677241772

$$$$
[H]C#CC([H])([H])[N+]([H])(C([H])([H])[H])C([H])([H])C(=C([H])[H])c1c([H])c([H])c(F)c(Br)c1[H].[H]OC(=O)C(=O)[O-]


 17 17  0  0  0  0  0  0  0  0999 V2000
   52.9372   -6.0824   -6.1479 C   0  0  0  0  0  0  0  0  0  0  0  0
   53.1532   -6.5309   -7.3428 C   0  0  0  0  0  0  0  0  0  0  0  0
   51.8060   -5.1530   -5.9266 C   0  0  0  0  0  0  0  0  0  0  0  0
   50.9795   -5.3710   -4.8140 C   0  0  0  0  0  0  0  0  0  0  0  0
   49.9126   -4.5443   -4.5511 C   0  0  0  0  0  0  0  0  0  0  0  0
   49.6100   -3.4726   -5.3630 C   0  0  0  0  0  0  0  0  0  0  0  0
   48.5389   -2.6705   -5.0696 F   0  0  0  0  0  0  0  0  0  0  0  0
   50.4102   -3.2512   -6.4512 C   0  0  0  0  0  0  0  0  0  0  0  0
   50.0261   -1.7839   -7.5948 Br  0  0  0  0  0  0  0  0  0  0  0  0
   51.4961   -4.0925   -6.7187 C   0  0  0  0  0  0  0  0  0  0  0  0
   53.7807   -6.4686   -5.0146 C   0  0  0  0  0  0  0  0  0  0  0  0
   54.5746   -5.5040   -3.0076 C   0  0  0  0  0  0  0  0  0  0  0  0
   54.5763   -5.4088   -4.4791 N   0  0  0  0  0  0  0  0  0  0  0  0
   54.1735   -4.4769   -4.6735 H   0  0  0  0  0  0  0  0  0  0  0  0
   55.9399   -5.4349   -4.9693 C   0  0  0  0  0  0  0  0  0  0  0  0
   56.0498   -4.5664   -6.1444 C   0  0  0  0  0  0  0  0  0  0  0  0
   56.1602   -3.8480   -7.1095 C   0  0  0  0  0  0  0  0  0  0  0  0
 12 13  1  0  0  0
 13 15  1  0  0  0
 15 16  1  0  0  0
 16 17  3  0  0  0
 13 11  1  0  0  0
 11  1  1  0  0  0
  1  2  2  0  0  0
  1  3  1  0  0  0
  3  4  2  0  0  0
  4  5  1  0  0  0
  5  6  2  0  0  0
  6  7  1  0  0  0
  6  8  1  0  0  0
  8  9  1  0  0  0
  8 10  2  0  0  0
 10  3  1  0  0  0
 13 14  1  0  0  0
M  CHG 1  13   1
M  END
> <minimizedAffinity>
-6.14290

> <CNNscore>
0.2789608836

> <CNNaffinity>
5.3775815964

> <CNN_VS>
1.5001349449

> <CNNaffinity_variance>
0.0765293092

$$$$
[H]C#CC([H])([H])[N+]([H])(C([H])([H])[H])C([H])([H])C(=C([H])[H])c1c([H])c([H])c(F)c(Br)c1[H].[H]OC(=O)C(=O)[O-]


 17 17  0  0  0  0  0  0  0  0999 V2000
   53.5116   -6.1306   -5.8535 C   0  0  0  0  0  0  0  0  0  0  0  0
   53.7770   -6.2325   -7.1163 C   0  0  0  0  0  0  0  0  0  0  0  0
   52.2447   -5.4860   -5.4389 C   0  0  0  0  0  0  0  0  0  0  0  0
   51.7200   -5.8100   -4.1786 C   0  0  0  0  0  0  0  0  0  0  0  0
   50.5476   -5.2461   -3.7330 C   0  0  0  0  0  0  0  0  0  0  0  0
   49.8412   -4.3443   -4.4991 C   0  0  0  0  0  0  0  0  0  0  0  0
   48.6767   -3.8028   -4.0220 F   0  0  0  0  0  0  0  0  0  0  0  0
   50.3445   -4.0214   -5.7303 C   0  0  0  0  0  0  0  0  0  0  0  0
   49.4001   -2.7819   -6.8165 Br  0  0  0  0  0  0  0  0  0  0  0  0
   51.5377   -4.5953   -6.1838 C   0  0  0  0  0  0  0  0  0  0  0  0
   54.4294   -6.6336   -4.8290 C   0  0  0  0  0  0  0  0  0  0  0  0
   55.5662   -5.0484   -3.4936 C   0  0  0  0  0  0  0  0  0  0  0  0
   55.6429   -5.8890   -4.7027 N   0  0  0  0  0  0  0  0  0  0  0  0
   55.7723   -5.2130   -5.4740 H   0  0  0  0  0  0  0  0  0  0  0  0
   56.8133   -6.7409   -4.6327 C   0  0  0  0  0  0  0  0  0  0  0  0
   56.6995   -7.6272   -3.4713 C   0  0  0  0  0  0  0  0  0  0  0  0
   56.5923   -8.3693   -2.5240 C   0  0  0  0  0  0  0  0  0  0  0  0
 12 13  1  0  0  0
 13 15  1  0  0  0
 15 16  1  0  0  0
 16 17  3  0  0  0
 13 11  1  0  0  0
 11  1  1  0  0  0
  1  2  2  0  0  0
  1  3  1  0  0  0
  3  4  2  0  0  0
  4  5  1  0  0  0
  5  6  2  0  0  0
  6  7  1  0  0  0
  6  8  1  0  0  0
  8  9  1  0  0  0
  8 10  2  0  0  0
 10  3  1  0  0  0
 13 14  1  0  0  0
M  CHG 1  13   1
M  END
> <minimizedAffinity>
-5.99593

> <CNNscore>
0.2719765902

> <CNNaffinity>
5.0615258217

> <CNN_VS>
1.3766164780

> <CNNaffinity_variance>
0.1629946977

$$$$
[H]C#CC([H])([H])[N+]([H])(C([H])([H])[H])C([H])([H])C(=C([H])[H])c1c([H])c([H])c(F)c(Br)c1[H].[H]OC(=O)C(=O)[O-]


 17 17  0  0  0  0  0  0  0  0999 V2000
   54.1777   -6.3070   -4.8876 C   0  0  0  0  0  0  0  0  0  0  0  0
   54.8336   -7.4174   -4.9983 C   0  0  0  0  0  0  0  0  0  0  0  0
   53.8713   -5.5325   -6.1117 C   0  0  0  0  0  0  0  0  0  0  0  0
   52.5536   -5.0889   -6.3006 C   0  0  0  0  0  0  0  0  0  0  0  0
   52.2029   -4.3644   -7.4155 C   0  0  0  0  0  0  0  0  0  0  0  0
   53.1235   -4.0441   -8.3897 C   0  0  0  0  0  0  0  0  0  0  0  0
   52.7374   -3.3205   -9.4871 F   0  0  0  0  0  0  0  0  0  0  0  0
   54.4118   -4.4721   -8.2151 C   0  0  0  0  0  0  0  0  0  0  0  0
   55.7105   -4.0508   -9.5357 Br  0  0  0  0  0  0  0  0  0  0  0  0
   54.7688   -5.2094   -7.0804 C   0  0  0  0  0  0  0  0  0  0  0  0
   53.7340   -5.7992   -3.5875 C   0  0  0  0  0  0  0  0  0  0  0  0
   52.8488   -7.4918   -2.1946 C   0  0  0  0  0  0  0  0  0  0  0  0
   52.5201   -6.3806   -3.1065 N   0  0  0  0  0  0  0  0  0  0  0  0
   51.9705   -6.8254   -3.8607 H   0  0  0  0  0  0  0  0  0  0  0  0
   51.6762   -5.4206   -2.4234 C   0  0  0  0  0  0  0  0  0  0  0  0
   50.5146   -5.1125   -3.2620 C   0  0  0  0  0  0  0  0  0  0  0  0
   49.5675   -4.8435   -3.9621 C   0  0  0  0  0  0  0  0  0  0  0  0
 12 13  1  0  0  0
 13 15  1  0  0  0
 15 16  1  0  0  0
 16 17  3  0  0  0
 13 11  1  0  0  0
 11  1  1  0  0  0
  1  2  2  0  0  0
  1  3  1  0  0  0
  3  4  2  0  0  0
  4  5  1  0  0  0
  5  6  2  0  0  0
  6  7  1  0  0  0
  6  8  1  0  0  0
  8  9  1  0  0  0
  8 10  2  0  0  0
 10  3  1  0  0  0
 13 14  1  0  0  0
M  CHG 1  13   1
M  END
> <minimizedAffinity>
-6.07922

> <CNNscore>
0.2690911889

> <CNNaffinity>
5.2347135544

> <CNN_VS>
1.4086153507

> <CNNaffinity_variance>
0.2260541916

$$$$
[H]C#CC([H])([H])[N+]([H])(C([H])([H])[H])C([H])([H])C(=C([H])[H])c1c([H])c([H])c(F)c(Br)c1[H].[H]OC(=O)C(=O)[O-]


 17 17  0  0  0  0  0  0  0  0999 V2000
   53.0901   -3.9582   -8.3131 C   0  0  0  0  0  0  0  0  0  0  0  0
   53.2726   -3.2674   -9.3924 C   0  0  0  0  0  0  0  0  0  0  0  0
   51.9007   -3.6776   -7.4771 C   0  0  0  0  0  0  0  0  0  0  0  0
   51.0957   -2.5808   -7.8201 C   0  0  0  0  0  0  0  0  0  0  0  0
   49.9767   -2.2661   -7.0856 C   0  0  0  0  0  0  0  0  0  0  0  0
   49.5990   -3.0086   -5.9878 C   0  0  0  0  0  0  0  0  0  0  0  0
   48.4774   -2.6649   -5.2800 F   0  0  0  0  0  0  0  0  0  0  0  0
   50.3775   -4.0807   -5.6446 C   0  0  0  0  0  0  0  0  0  0  0  0
   49.8902   -5.1294   -4.1376 Br  0  0  0  0  0  0  0  0  0  0  0  0
   51.5164   -4.4011   -6.3922 C   0  0  0  0  0  0  0  0  0  0  0  0
   54.0271   -5.0050   -7.8992 C   0  0  0  0  0  0  0  0  0  0  0  0
   55.4617   -5.8477   -6.2198 C   0  0  0  0  0  0  0  0  0  0  0  0
   54.9042   -4.6291   -6.8351 N   0  0  0  0  0  0  0  0  0  0  0  0
   54.4055   -4.1593   -6.0610 H   0  0  0  0  0  0  0  0  0  0  0  0
   55.9822   -3.7690   -7.2806 C   0  0  0  0  0  0  0  0  0  0  0  0
   56.7454   -4.4513   -8.3291 C   0  0  0  0  0  0  0  0  0  0  0  0
   57.3831   -4.9960   -9.1987 C   0  0  0  0  0  0  0  0  0  0  0  0
 12 13  1  0  0  0
 13 15  1  0  0  0
 15 16  1  0  0  0
 16 17  3  0  0  0
 13 11  1  0  0  0
 11  1  1  0  0  0
  1  2  2  0  0  0
  1  3  1  0  0  0
  3  4  2  0  0  0
  4  5  1  0  0  0
  5  6  2  0  0  0
  6  7  1  0  0  0
  6  8  1  0  0  0
  8  9  1  0  0  0
  8 10  2  0  0  0
 10  3  1  0  0  0
 13 14  1  0  0  0
M  CHG 1  13   1
M  END
> <minimizedAffinity>
-7.60936

> <CNNscore>
0.2659604549

> <CNNaffinity>
5.4046883583

> <CNN_VS>
1.4374333620

> <CNNaffinity_variance>
0.1401654780

$$$$
[H]C#CC([H])([H])[N+]([H])(C([H])([H])[H])C([H])([H])C(=C([H])[H])c1c([H])c([H])c(F)c(Br)c1[H].[H]OC(=O)C(=O)[O-]


 17 17  0  0  0  0  0  0  0  0999 V2000
   53.2658   -3.9088   -8.3037 C   0  0  0  0  0  0  0  0  0  0  0  0
   53.0158   -2.9370   -9.1213 C   0  0  0  0  0  0  0  0  0  0  0  0
   52.2687   -4.2399   -7.2603 C   0  0  0  0  0  0  0  0  0  0  0  0
   52.4116   -5.4536   -6.5710 C   0  0  0  0  0  0  0  0  0  0  0  0
   51.5204   -5.8205   -5.5902 C   0  0  0  0  0  0  0  0  0  0  0  0
   50.4550   -5.0182   -5.2433 C   0  0  0  0  0  0  0  0  0  0  0  0
   49.5873   -5.4167   -4.2609 F   0  0  0  0  0  0  0  0  0  0  0  0
   50.3065   -3.8319   -5.9098 C   0  0  0  0  0  0  0  0  0  0  0  0
   48.8504   -2.6978   -5.4606 Br  0  0  0  0  0  0  0  0  0  0  0  0
   51.2136   -3.4584   -6.9080 C   0  0  0  0  0  0  0  0  0  0  0  0
   54.5053   -4.6849   -8.3835 C   0  0  0  0  0  0  0  0  0  0  0  0
   56.1325   -3.6871   -6.9887 C   0  0  0  0  0  0  0  0  0  0  0  0
   55.6987   -3.8983   -8.3822 N   0  0  0  0  0  0  0  0  0  0  0  0
   55.5417   -2.9438   -8.7466 H   0  0  0  0  0  0  0  0  0  0  0  0
   56.7704   -4.5127   -9.1402 C   0  0  0  0  0  0  0  0  0  0  0  0
   56.5283   -4.3133  -10.5716 C   0  0  0  0  0  0  0  0  0  0  0  0
   56.3171   -4.1329  -11.7474 C   0  0  0  0  0  0  0  0  0  0  0  0
 12 13  1  0  0  0
 13 15  1  0  0  0
 15 16  1  0  0  0
 16 17  3  0  0  0
 13 11  1  0  0  0
 11  1  1  0  0  0
  1  2  2  0  0  0
  1  3  1  0  0  0
  3  4  2  0  0  0
  4  5  1  0  0  0
  5  6  2  0  0  0
  6  7  1  0  0  0
  6  8  1  0  0  0
  8  9  1  0  0  0
  8 10  2  0  0  0
 10  3  1  0  0  0
 13 14  1  0  0  0
M  CHG 1  13   1
M  END
> <minimizedAffinity>
-7.23968

> <CNNscore>
0.2588686347

> <CNNaffinity>
5.3687543869

> <CNN_VS>
1.3898020983

> <CNNaffinity_variance>
0.1513245404

$$$$
[H]c1nc(N([H])c2c([H])c([H])c3c(c2[H])C(=O)N(C([H])([H])[H])C3=O)c2c([H])c(OC([H])([H])[H])c(OC([H])([H])[H])c([H])c2n1


 28 31  0  0  0  0  0  0  0  0999 V2000
   54.9113   -4.7097   -8.1717 N   0  0  0  0  0  0  0  0  0  0  0  0
   55.1816   -5.3603   -7.3759 H   0  0  0  0  0  0  0  0  0  0  0  0
   55.8500   -4.5721   -9.2402 C   0  0  0  0  0  0  0  0  0  0  0  0
   57.1716   -4.9675   -8.9608 C   0  0  0  0  0  0  0  0  0  0  0  0
   58.1727   -4.9184   -9.8986 C   0  0  0  0  0  0  0  0  0  0  0  0
   57.8621   -4.4619  -11.1623 C   0  0  0  0  0  0  0  0  0  0  0  0
   56.5730   -4.0731  -11.4467 C   0  0  0  0  0  0  0  0  0  0  0  0
   55.5498   -4.1215  -10.4956 C   0  0  0  0  0  0  0  0  0  0  0  0
   56.5243   -3.6425  -12.8272 C   0  0  0  0  0  0  0  0  0  0  0  0
   55.5510   -3.2126  -13.4913 O   0  0  0  0  0  0  0  0  0  0  0  0
   57.8450   -3.7871  -13.3720 N   0  0  0  0  0  0  0  0  0  0  0  0
   58.2453   -3.4705  -14.7238 C   0  0  0  0  0  0  0  0  0  0  0  0
   58.7003   -4.2946  -12.3616 C   0  0  0  0  0  0  0  0  0  0  0  0
   59.9438   -4.5608  -12.4463 O   0  0  0  0  0  0  0  0  0  0  0  0
   53.6782   -4.0445   -8.1182 C   0  0  0  0  0  0  0  0  0  0  0  0
   52.7470   -4.3895   -7.1313 C   0  0  0  0  0  0  0  0  0  0  0  0
   51.5714   -3.6712   -7.1155 C   0  0  0  0  0  0  0  0  0  0  0  0
   50.6309   -3.9988   -6.1442 C   0  0  0  0  0  0  0  0  0  0  0  0
   50.8795   -5.0111   -5.2333 C   0  0  0  0  0  0  0  0  0  0  0  0
   52.0463   -5.7298   -5.2432 C   0  0  0  0  0  0  0  0  0  0  0  0
   52.9933   -5.3984   -6.2230 C   0  0  0  0  0  0  0  0  0  0  0  0
   51.3076   -2.6758   -8.0017 N   0  0  0  0  0  0  0  0  0  0  0  0
   52.2061   -2.3520   -8.9448 C   0  0  0  0  0  0  0  0  0  0  0  0
   53.3431   -3.0467   -8.9597 N   0  0  0  0  0  0  0  0  0  0  0  0
   49.9286   -5.3169   -4.2782 O   0  0  0  0  0  0  0  0  0  0  0  0
   49.1056   -4.3343   -3.6739 C   0  0  0  0  0  0  0  0  0  0  0  0
   52.2509   -6.7314   -4.3147 O   0  0  0  0  0  0  0  0  0  0  0  0
   53.0920   -6.4532   -3.1850 C   0  0  0  0  0  0  0  0  0  0  0  0
  3  1  1  0  0  0
  1 15  1  0  0  0
 15 16  1  0  0  0
 16 17  1  0  0  0
 17 18  2  0  0  0
 18 19  1  0  0  0
 19 25  1  0  0  0
 25 26  1  0  0  0
 19 20  2  0  0  0
 20 27  1  0  0  0
 27 28  1  0  0  0
 20 21  1  0  0  0
 17 22  1  0  0  0
 22 23  2  0  0  0
 23 24  1  0  0  0
  3  4  2  0  0  0
  4  5  1  0  0  0
  5  6  2  0  0  0
  6  7  1  0  0  0
  7  8  2  0  0  0
  7  9  1  0  0  0
  9 10  2  0  0  0
  9 11  1  0  0  0
 11 12  1  0  0  0
 11 13  1  0  0  0
 13 14  2  0  0  0
  8  3  1  0  0  0
 24 15  2  0  0  0
 13  6  1  0  0  0
 21 16  2  0  0  0
  1  2  1  0  0  0
M  END
> <minimizedAffinity>
-9.49519

> <CNNscore>
0.6601231694

> <CNNaffinity>
6.6228613853

> <CNN_VS>
4.3719043732

> <CNNaffinity_variance>
0.0746785030

$$$$
[H]c1nc(N([H])c2c([H])c([H])c3c(c2[H])C(=O)N(C([H])([H])[H])C3=O)c2c([H])c(OC([H])([H])[H])c(OC([H])([H])[H])c([H])c2n1


 28 31  0  0  0  0  0  0  0  0999 V2000
   53.0462   -6.1132   -7.1131 N   0  0  0  0  0  0  0  0  0  0  0  0
   52.6734   -7.0044   -7.5563 H   0  0  0  0  0  0  0  0  0  0  0  0
   54.0711   -6.2618   -6.1287 C   0  0  0  0  0  0  0  0  0  0  0  0
   55.3956   -6.1269   -6.5854 C   0  0  0  0  0  0  0  0  0  0  0  0
   56.4798   -6.2162   -5.7484 C   0  0  0  0  0  0  0  0  0  0  0  0
   56.2528   -6.4476   -4.4079 C   0  0  0  0  0  0  0  0  0  0  0  0
   54.9618   -6.5807   -3.9502 C   0  0  0  0  0  0  0  0  0  0  0  0
   53.8543   -6.4902   -4.7982 C   0  0  0  0  0  0  0  0  0  0  0  0
   55.0094   -6.8143   -2.5232 C   0  0  0  0  0  0  0  0  0  0  0  0
   54.0664   -6.9897   -1.7151 O   0  0  0  0  0  0  0  0  0  0  0  0
   56.3909   -6.8173   -2.1314 N   0  0  0  0  0  0  0  0  0  0  0  0
   56.8932   -7.0164   -0.7913 C   0  0  0  0  0  0  0  0  0  0  0  0
   57.1897   -6.5918   -3.2809 C   0  0  0  0  0  0  0  0  0  0  0  0
   58.4603   -6.5231   -3.3528 O   0  0  0  0  0  0  0  0  0  0  0  0
   52.5164   -4.8793   -7.5163 C   0  0  0  0  0  0  0  0  0  0  0  0
   51.4988   -4.2824   -6.7624 C   0  0  0  0  0  0  0  0  0  0  0  0
   51.0501   -3.0542   -7.1964 C   0  0  0  0  0  0  0  0  0  0  0  0
   50.0378   -2.4438   -6.4630 C   0  0  0  0  0  0  0  0  0  0  0  0
   49.5096   -3.0584   -5.3408 C   0  0  0  0  0  0  0  0  0  0  0  0
   49.9508   -4.2799   -4.9034 C   0  0  0  0  0  0  0  0  0  0  0  0
   50.9713   -4.8940   -5.6438 C   0  0  0  0  0  0  0  0  0  0  0  0
   51.5537   -2.4355   -8.2961 N   0  0  0  0  0  0  0  0  0  0  0  0
   52.5290   -3.0153   -9.0132 C   0  0  0  0  0  0  0  0  0  0  0  0
   52.9630   -4.2031   -8.5930 N   0  0  0  0  0  0  0  0  0  0  0  0
   48.5044   -2.4308   -4.6296 O   0  0  0  0  0  0  0  0  0  0  0  0
   47.1664   -2.8973   -4.6198 C   0  0  0  0  0  0  0  0  0  0  0  0
   49.3942   -4.8554   -3.7781 O   0  0  0  0  0  0  0  0  0  0  0  0
   50.2743   -5.4149   -2.7914 C   0  0  0  0  0  0  0  0  0  0  0  0
  3  1  1  0  0  0
  1 15  1  0  0  0
 15 16  1  0  0  0
 16 17  1  0  0  0
 17 18  2  0  0  0
 18 19  1  0  0  0
 19 25  1  0  0  0
 25 26  1  0  0  0
 19 20  2  0  0  0
 20 27  1  0  0  0
 27 28  1  0  0  0
 20 21  1  0  0  0
 17 22  1  0  0  0
 22 23  2  0  0  0
 23 24  1  0  0  0
  3  4  2  0  0  0
  4  5  1  0  0  0
  5  6  2  0  0  0
  6  7  1  0  0  0
  7  8  2  0  0  0
  7  9  1  0  0  0
  9 10  2  0  0  0
  9 11  1  0  0  0
 11 12  1  0  0  0
 11 13  1  0  0  0
 13 14  2  0  0  0
  8  3  1  0  0  0
 24 15  2  0  0  0
 13  6  1  0  0  0
 21 16  2  0  0  0
  1  2  1  0  0  0
M  END
> <minimizedAffinity>
-8.93784

> <CNNscore>
0.6533709168

> <CNNaffinity>
6.9566621780

> <CNN_VS>
4.5452809334

> <CNNaffinity_variance>
0.2411841154

$$$$
[H]c1nc(N([H])c2c([H])c([H])c3c(c2[H])C(=O)N(C([H])([H])[H])C3=O)c2c([H])c(OC([H])([H])[H])c(OC([H])([H])[H])c([H])c2n1


 28 31  0  0  0  0  0  0  0  0999 V2000
   56.5775   -4.9426   -7.8991 N   0  0  0  0  0  0  0  0  0  0  0  0
   57.2382   -5.0326   -7.0715 H   0  0  0  0  0  0  0  0  0  0  0  0
   55.1791   -4.9074   -7.6077 C   0  0  0  0  0  0  0  0  0  0  0  0
   54.6771   -5.9755   -6.8408 C   0  0  0  0  0  0  0  0  0  0  0  0
   53.3609   -6.0591   -6.4605 C   0  0  0  0  0  0  0  0  0  0  0  0
   52.5032   -5.0519   -6.8500 C   0  0  0  0  0  0  0  0  0  0  0  0
   52.9833   -4.0024   -7.5998 C   0  0  0  0  0  0  0  0  0  0  0  0
   54.3227   -3.9123   -7.9893 C   0  0  0  0  0  0  0  0  0  0  0  0
   51.8859   -3.0983   -7.8676 C   0  0  0  0  0  0  0  0  0  0  0  0
   51.8824   -2.0224   -8.5121 O   0  0  0  0  0  0  0  0  0  0  0  0
   50.7131   -3.6457   -7.2456 N   0  0  0  0  0  0  0  0  0  0  0  0
   49.3910   -3.0628   -7.2647 C   0  0  0  0  0  0  0  0  0  0  0  0
   51.0638   -4.8607   -6.6045 C   0  0  0  0  0  0  0  0  0  0  0  0
   50.3083   -5.6463   -5.9439 O   0  0  0  0  0  0  0  0  0  0  0  0
   57.1130   -4.8676   -9.1927 C   0  0  0  0  0  0  0  0  0  0  0  0
   58.4167   -5.3194   -9.4304 C   0  0  0  0  0  0  0  0  0  0  0  0
   58.8657   -5.2488  -10.7310 C   0  0  0  0  0  0  0  0  0  0  0  0
   60.1591   -5.6908  -10.9894 C   0  0  0  0  0  0  0  0  0  0  0  0
   60.9552   -6.1811   -9.9686 C   0  0  0  0  0  0  0  0  0  0  0  0
   60.5153   -6.2542   -8.6727 C   0  0  0  0  0  0  0  0  0  0  0  0
   59.2112   -5.8081   -8.4138 C   0  0  0  0  0  0  0  0  0  0  0  0
   58.1010   -4.7690  -11.7463 N   0  0  0  0  0  0  0  0  0  0  0  0
   56.8523   -4.3376  -11.5092 C   0  0  0  0  0  0  0  0  0  0  0  0
   56.4182   -4.4063  -10.2512 N   0  0  0  0  0  0  0  0  0  0  0  0
   62.2367   -6.6140  -10.2519 O   0  0  0  0  0  0  0  0  0  0  0  0
   62.7811   -6.5932  -11.5600 C   0  0  0  0  0  0  0  0  0  0  0  0
   61.3449   -6.7507   -7.6865 O   0  0  0  0  0  0  0  0  0  0  0  0
   61.6161   -8.1604   -7.6688 C   0  0  0  0  0  0  0  0  0  0  0  0
  3  1  1  0  0  0
  1 15  1  0  0  0
 15 16  1  0  0  0
 16 17  1  0  0  0
 17 18  2  0  0  0
 18 19  1  0  0  0
 19 25  1  0  0  0
 25 26  1  0  0  0
 19 20  2  0  0  0
 20 27  1  0  0  0
 27 28  1  0  0  0
 20 21  1  0  0  0
 17 22  1  0  0  0
 22 23  2  0  0  0
 23 24  1  0  0  0
  3  4  2  0  0  0
  4  5  1  0  0  0
  5  6  2  0  0  0
  6  7  1  0  0  0
  7  8  2  0  0  0
  7  9  1  0  0  0
  9 10  2  0  0  0
  9 11  1  0  0  0
 11 12  1  0  0  0
 11 13  1  0  0  0
 13 14  2  0  0  0
  8  3  1  0  0  0
 24 15  2  0  0  0
 13  6  1  0  0  0
 21 16  2  0  0  0
  1  2  1  0  0  0
M  END
> <minimizedAffinity>
-7.71597

> <CNNscore>
0.6118167043

> <CNNaffinity>
6.3595180511

> <CNN_VS>
3.8908593655

> <CNNaffinity_variance>
0.6026003957

$$$$
[H]c1nc(N([H])c2c([H])c([H])c3c(c2[H])C(=O)N(C([H])([H])[H])C3=O)c2c([H])c(OC([H])([H])[H])c(OC([H])([H])[H])c([H])c2n1


 28 31  0  0  0  0  0  0  0  0999 V2000
   54.7064   -5.8089   -7.5156 N   0  0  0  0  0  0  0  0  0  0  0  0
   54.9493   -6.5646   -8.2224 H   0  0  0  0  0  0  0  0  0  0  0  0
   55.0564   -6.0625   -6.1537 C   0  0  0  0  0  0  0  0  0  0  0  0
   54.8802   -7.3841   -5.7026 C   0  0  0  0  0  0  0  0  0  0  0  0
   55.2011   -7.7800   -4.4281 C   0  0  0  0  0  0  0  0  0  0  0  0
   55.7158   -6.8386   -3.5618 C   0  0  0  0  0  0  0  0  0  0  0  0
   55.8927   -5.5435   -3.9922 C   0  0  0  0  0  0  0  0  0  0  0  0
   55.5680   -5.1352   -5.2890 C   0  0  0  0  0  0  0  0  0  0  0  0
   56.4404   -4.7733   -2.8967 C   0  0  0  0  0  0  0  0  0  0  0  0
   56.7514   -3.5588   -2.8570 O   0  0  0  0  0  0  0  0  0  0  0  0
   56.5895   -5.6598   -1.7770 N   0  0  0  0  0  0  0  0  0  0  0  0
   57.1033   -5.3036   -0.4743 C   0  0  0  0  0  0  0  0  0  0  0  0
   56.1476   -6.9519   -2.1584 C   0  0  0  0  0  0  0  0  0  0  0  0
   56.1190   -8.0121   -1.4517 O   0  0  0  0  0  0  0  0  0  0  0  0
   54.0714   -4.6404   -7.9597 C   0  0  0  0  0  0  0  0  0  0  0  0
   52.7901   -4.3269   -7.4905 C   0  0  0  0  0  0  0  0  0  0  0  0
   52.2410   -3.1462   -7.9408 C   0  0  0  0  0  0  0  0  0  0  0  0
   50.9676   -2.8159   -7.4887 C   0  0  0  0  0  0  0  0  0  0  0  0
   50.2882   -3.6512   -6.6188 C   0  0  0  0  0  0  0  0  0  0  0  0
   50.8280   -4.8270   -6.1669 C   0  0  0  0  0  0  0  0  0  0  0  0
   52.1118   -5.1587   -6.6237 C   0  0  0  0  0  0  0  0  0  0  0  0
   52.8904   -2.3139   -8.7960 N   0  0  0  0  0  0  0  0  0  0  0  0
   54.1185   -2.6228   -9.2410 C   0  0  0  0  0  0  0  0  0  0  0  0
   54.6495   -3.7646   -8.8051 N   0  0  0  0  0  0  0  0  0  0  0  0
   49.0240   -3.3000   -6.1845 O   0  0  0  0  0  0  0  0  0  0  0  0
   48.8034   -2.4915   -5.0419 C   0  0  0  0  0  0  0  0  0  0  0  0
   50.1131   -5.6294   -5.2994 O   0  0  0  0  0  0  0  0  0  0  0  0
   50.5018   -5.6561   -3.9176 C   0  0  0  0  0  0  0  0  0  0  0  0
  3  1  1  0  0  0
  1 15  1  0  0  0
 15 16  1  0  0  0
 16 17  1  0  0  0
 17 18  2  0  0  0
 18 19  1  0  0  0
 19 25  1  0  0  0
 25 26  1  0  0  0
 19 20  2  0  0  0
 20 27  1  0  0  0
 27 28  1  0  0  0
 20 21  1  0  0  0
 17 22  1  0  0  0
 22 23  2  0  0  0
 23 24  1  0  0  0
  3  4  2  0  0  0
  4  5  1  0  0  0
  5  6  2  0  0  0
  6  7  1  0  0  0
  7  8  2  0  0  0
  7  9  1  0  0  0
  9 10  2  0  0  0
  9 11  1  0  0  0
 11 12  1  0  0  0
 11 13  1  0  0  0
 13 14  2  0  0  0
  8  3  1  0  0  0
 24 15  2  0  0  0
 13  6  1  0  0  0
 21 16  2  0  0  0
  1  2  1  0  0  0
M  END
> <minimizedAffinity>
-8.74138

> <CNNscore>
0.5825984478

> <CNNaffinity>
6.6061210632

> <CNN_VS>
3.8487157822

> <CNNaffinity_variance>
0.0590146370

$$$$
[H]c1nc(N([H])c2c([H])c([H])c3c(c2[H])C(=O)N(C([H])([H])[H])C3=O)c2c([H])c(OC([H])([H])[H])c(OC([H])([H])[H])c([H])c2n1


 28 31  0  0  0  0  0  0  0  0999 V2000
   52.9420   -5.1391   -6.6614 N   0  0  0  0  0  0  0  0  0  0  0  0
   52.7236   -5.9675   -6.0324 H   0  0  0  0  0  0  0  0  0  0  0  0
   54.2418   -5.1034   -7.2537 C   0  0  0  0  0  0  0  0  0  0  0  0
   55.3145   -5.4723   -6.4204 C   0  0  0  0  0  0  0  0  0  0  0  0
   56.6140   -5.5125   -6.8610 C   0  0  0  0  0  0  0  0  0  0  0  0
   56.8692   -5.1763   -8.1738 C   0  0  0  0  0  0  0  0  0  0  0  0
   55.8279   -4.8145   -8.9976 C   0  0  0  0  0  0  0  0  0  0  0  0
   54.5030   -4.7723   -8.5542 C   0  0  0  0  0  0  0  0  0  0  0  0
   56.3687   -4.5154  -10.3058 C   0  0  0  0  0  0  0  0  0  0  0  0
   55.7729   -4.1486  -11.3468 O   0  0  0  0  0  0  0  0  0  0  0  0
   57.7897   -4.7119  -10.2415 N   0  0  0  0  0  0  0  0  0  0  0  0
   58.7231   -4.5239  -11.3284 C   0  0  0  0  0  0  0  0  0  0  0  0
   58.1326   -5.1232   -8.9288 C   0  0  0  0  0  0  0  0  0  0  0  0
   59.2892   -5.3976   -8.4689 O   0  0  0  0  0  0  0  0  0  0  0  0
   51.9599   -4.1586   -6.8612 C   0  0  0  0  0  0  0  0  0  0  0  0
   50.9036   -4.0399   -5.9500 C   0  0  0  0  0  0  0  0  0  0  0  0
   49.9946   -3.0324   -6.1884 C   0  0  0  0  0  0  0  0  0  0  0  0
   48.9357   -2.8976   -5.2963 C   0  0  0  0  0  0  0  0  0  0  0  0
   48.8116   -3.7508   -4.2133 C   0  0  0  0  0  0  0  0  0  0  0  0
   49.7117   -4.7552   -3.9701 C   0  0  0  0  0  0  0  0  0  0  0  0
   50.7785   -4.8898   -4.8704 C   0  0  0  0  0  0  0  0  0  0  0  0
   50.0975   -2.1862   -7.2463 N   0  0  0  0  0  0  0  0  0  0  0  0
   51.1134   -2.3076   -8.1151 C   0  0  0  0  0  0  0  0  0  0  0  0
   51.9926   -3.2820   -7.8842 N   0  0  0  0  0  0  0  0  0  0  0  0
   47.7502   -3.5957   -3.3418 O   0  0  0  0  0  0  0  0  0  0  0  0
   46.4528   -4.0944   -3.6176 C   0  0  0  0  0  0  0  0  0  0  0  0
   49.5476   -5.5829   -2.8768 O   0  0  0  0  0  0  0  0  0  0  0  0
   50.7175   -6.1544   -2.2720 C   0  0  0  0  0  0  0  0  0  0  0  0
  3  1  1  0  0  0
  1 15  1  0  0  0
 15 16  1  0  0  0
 16 17  1  0  0  0
 17 18  2  0  0  0
 18 19  1  0  0  0
 19 25  1  0  0  0
 25 26  1  0  0  0
 19 20  2  0  0  0
 20 27  1  0  0  0
 27 28  1  0  0  0
 20 21  1  0  0  0
 17 22  1  0  0  0
 22 23  2  0  0  0
 23 24  1  0  0  0
  3  4  2  0  0  0
  4  5  1  0  0  0
  5  6  2  0  0  0
  6  7  1  0  0  0
  7  8  2  0  0  0
  7  9  1  0  0  0
  9 10  2  0  0  0
  9 11  1  0  0  0
 11 12  1  0  0  0
 11 13  1  0  0  0
 13 14  2  0  0  0
  8  3  1  0  0  0
 24 15  2  0  0  0
 13  6  1  0  0  0
 21 16  2  0  0  0
  1  2  1  0  0  0
M  END
> <minimizedAffinity>
-9.50312

> <CNNscore>
0.5803995132

> <CNNaffinity>
6.9656243324

> <CNN_VS>
4.0428447723

> <CNNaffinity_variance>
0.2661488652

$$$$
[H]c1nc(N([H])c2c([H])c([H])c3c(c2[H])C(=O)N(C([H])([H])[H])C3=O)c2c([H])c(OC([H])([H])[H])c(OC([H])([H])[H])c([H])c2n1


 28 31  0  0  0  0  0  0  0  0999 V2000
   52.9772   -4.3170   -9.0880 N   0  0  0  0  0  0  0  0  0  0  0  0
   52.5681   -4.5614  -10.0380 H   0  0  0  0  0  0  0  0  0  0  0  0
   52.0494   -4.0208   -8.0425 C   0  0  0  0  0  0  0  0  0  0  0  0
   51.4474   -2.7493   -8.0879 C   0  0  0  0  0  0  0  0  0  0  0  0
   50.5163   -2.3380   -7.1669 C   0  0  0  0  0  0  0  0  0  0  0  0
   50.1627   -3.2120   -6.1606 C   0  0  0  0  0  0  0  0  0  0  0  0
   50.7446   -4.4580   -6.1068 C   0  0  0  0  0  0  0  0  0  0  0  0
   51.6929   -4.8819   -7.0422 C   0  0  0  0  0  0  0  0  0  0  0  0
   50.2007   -5.1626   -4.9662 C   0  0  0  0  0  0  0  0  0  0  0  0
   50.4543   -6.3191   -4.5520 O   0  0  0  0  0  0  0  0  0  0  0  0
   49.2589   -4.2876   -4.3263 N   0  0  0  0  0  0  0  0  0  0  0  0
   48.4833   -4.5921   -3.1457 C   0  0  0  0  0  0  0  0  0  0  0  0
   49.2123   -3.0664   -5.0450 C   0  0  0  0  0  0  0  0  0  0  0  0
   48.5025   -2.0370   -4.7985 O   0  0  0  0  0  0  0  0  0  0  0  0
   54.3704   -4.3015   -8.9304 C   0  0  0  0  0  0  0  0  0  0  0  0
   54.9569   -5.0162   -7.8791 C   0  0  0  0  0  0  0  0  0  0  0  0
   56.3323   -4.9857   -7.8053 C   0  0  0  0  0  0  0  0  0  0  0  0
   56.9361   -5.6877   -6.7672 C   0  0  0  0  0  0  0  0  0  0  0  0
   56.1718   -6.3868   -5.8489 C   0  0  0  0  0  0  0  0  0  0  0  0
   54.8034   -6.4214   -5.9159 C   0  0  0  0  0  0  0  0  0  0  0  0
   54.1962   -5.7132   -6.9630 C   0  0  0  0  0  0  0  0  0  0  0  0
   57.1001   -4.3041   -8.6951 N   0  0  0  0  0  0  0  0  0  0  0  0
   56.5291   -3.6212   -9.6998 C   0  0  0  0  0  0  0  0  0  0  0  0
   55.1988   -3.6511   -9.7710 N   0  0  0  0  0  0  0  0  0  0  0  0
   56.7962   -7.0761   -4.8267 O   0  0  0  0  0  0  0  0  0  0  0  0
   57.2301   -6.4487   -3.6325 C   0  0  0  0  0  0  0  0  0  0  0  0
   54.0815   -7.1323   -4.9774 O   0  0  0  0  0  0  0  0  0  0  0  0
   53.6202   -6.4426   -3.8058 C   0  0  0  0  0  0  0  0  0  0  0  0
  3  1  1  0  0  0
  1 15  1  0  0  0
 15 16  1  0  0  0
 16 17  1  0  0  0
 17 18  2  0  0  0
 18 19  1  0  0  0
 19 25  1  0  0  0
 25 26  1  0  0  0
 19 20  2  0  0  0
 20 27  1  0  0  0
 27 28  1  0  0  0
 20 21  1  0  0  0
 17 22  1  0  0  0
 22 23  2  0  0  0
 23 24  1  0  0  0
  3  4  2  0  0  0
  4  5  1  0  0  0
  5  6  2  0  0  0
  6  7  1  0  0  0
  7  8  2  0  0  0
  7  9  1  0  0  0
  9 10  2  0  0  0
  9 11  1  0  0  0
 11 12  1  0  0  0
 11 13  1  0  0  0
 13 14  2  0  0  0
  8  3  1  0  0  0
 24 15  2  0  0  0
 13  6  1  0  0  0
 21 16  2  0  0  0
  1  2  1  0  0  0
M  END
> <minimizedAffinity>
-8.69294

> <CNNscore>
0.5302239656

> <CNNaffinity>
6.7728257179

> <CNN_VS>
3.5911145210

> <CNNaffinity_variance>
0.4076000750

$$$$
[H]c1nc(N([H])c2c([H])c([H])c3c(c2[H])C(=O)N(C([H])([H])[H])C3=O)c2c([H])c(OC([H])([H])[H])c(OC([H])([H])[H])c([H])c2n1


 28 31  0  0  0  0  0  0  0  0999 V2000
   54.8530   -4.6902   -7.3700 N   0  0  0  0  0  0  0  0  0  0  0  0
   55.0232   -5.1215   -6.4136 H   0  0  0  0  0  0  0  0  0  0  0  0
   55.9113   -4.7978   -8.3240 C   0  0  0  0  0  0  0  0  0  0  0  0
   55.6428   -4.2913   -9.6095 C   0  0  0  0  0  0  0  0  0  0  0  0
   56.5738   -4.3008  -10.6181 C   0  0  0  0  0  0  0  0  0  0  0  0
   57.8193   -4.8299  -10.3522 C   0  0  0  0  0  0  0  0  0  0  0  0
   58.0930   -5.3275   -9.0987 C   0  0  0  0  0  0  0  0  0  0  0  0
   57.1487   -5.3198   -8.0681 C   0  0  0  0  0  0  0  0  0  0  0  0
   59.4552   -5.8152   -9.0929 C   0  0  0  0  0  0  0  0  0  0  0  0
   60.1053   -6.3448   -8.1601 O   0  0  0  0  0  0  0  0  0  0  0  0
   60.0001   -5.5915  -10.4025 N   0  0  0  0  0  0  0  0  0  0  0  0
   61.3364   -5.9302  -10.8354 C   0  0  0  0  0  0  0  0  0  0  0  0
   59.0075   -4.9800  -11.2093 C   0  0  0  0  0  0  0  0  0  0  0  0
   59.0980   -4.6227  -12.4293 O   0  0  0  0  0  0  0  0  0  0  0  0
   53.6276   -4.0576   -7.6232 C   0  0  0  0  0  0  0  0  0  0  0  0
   52.5130   -4.3647   -6.8335 C   0  0  0  0  0  0  0  0  0  0  0  0
   51.3512   -3.6799   -7.1150 C   0  0  0  0  0  0  0  0  0  0  0  0
   50.2306   -3.9707   -6.3437 C   0  0  0  0  0  0  0  0  0  0  0  0
   50.2941   -4.9153   -5.3338 C   0  0  0  0  0  0  0  0  0  0  0  0
   51.4462   -5.6004   -5.0483 C   0  0  0  0  0  0  0  0  0  0  0  0
   52.5749   -5.3061   -5.8268 C   0  0  0  0  0  0  0  0  0  0  0  0
   51.2677   -2.7510   -8.1029 N   0  0  0  0  0  0  0  0  0  0  0  0
   52.3413   -2.4632   -8.8553 C   0  0  0  0  0  0  0  0  0  0  0  0
   53.4651   -3.1255   -8.5826 N   0  0  0  0  0  0  0  0  0  0  0  0
   49.1665   -5.1859   -4.5819 O   0  0  0  0  0  0  0  0  0  0  0  0
   48.7052   -4.3249   -3.5552 C   0  0  0  0  0  0  0  0  0  0  0  0
   51.4629   -6.5345   -4.0312 O   0  0  0  0  0  0  0  0  0  0  0  0
   52.5810   -6.5428   -3.1307 C   0  0  0  0  0  0  0  0  0  0  0  0
  3  1  1  0  0  0
  1 15  1  0  0  0
 15 16  1  0  0  0
 16 17  1  0  0  0
 17 18  2  0  0  0
 18 19  1  0  0  0
 19 25  1  0  0  0
 25 26  1  0  0  0
 19 20  2  0  0  0
 20 27  1  0  0  0
 27 28  1  0  0  0
 20 21  1  0  0  0
 17 22  1  0  0  0
 22 23  2  0  0  0
 23 24  1  0  0  0
  3  4  2  0  0  0
  4  5  1  0  0  0
  5  6  2  0  0  0
  6  7  1  0  0  0
  7  8  2  0  0  0
  7  9  1  0  0  0
  9 10  2  0  0  0
  9 11  1  0  0  0
 11 12  1  0  0  0
 11 13  1  0  0  0
 13 14  2  0  0  0
  8  3  1  0  0  0
 24 15  2  0  0  0
 13  6  1  0  0  0
 21 16  2  0  0  0
  1  2  1  0  0  0
M  END
> <minimizedAffinity>
-8.51720

> <CNNscore>
0.5109435916

> <CNNaffinity>
6.5548410416

> <CNN_VS>
3.3491539955

> <CNNaffinity_variance>
0.1736920625

$$$$
[H]c1nc(N([H])c2c([H])c([H])c3c(c2[H])C(=O)N(C([H])([H])[H])C3=O)c2c([H])c(OC([H])([H])[H])c(OC([H])([H])[H])c([H])c2n1


 28 31  0  0  0  0  0  0  0  0999 V2000
   54.1803   -4.0860   -9.3631 N   0  0  0  0  0  0  0  0  0  0  0  0
   53.9013   -3.7117  -10.3180 H   0  0  0  0  0  0  0  0  0  0  0  0
   53.1532   -4.1570   -8.3724 C   0  0  0  0  0  0  0  0  0  0  0  0
   53.1824   -5.2816   -7.5266 C   0  0  0  0  0  0  0  0  0  0  0  0
   52.2769   -5.4683   -6.5120 C   0  0  0  0  0  0  0  0  0  0  0  0
   51.3030   -4.5107   -6.3212 C   0  0  0  0  0  0  0  0  0  0  0  0
   51.2653   -3.4067   -7.1421 C   0  0  0  0  0  0  0  0  0  0  0  0
   52.1851   -3.2116   -8.1763 C   0  0  0  0  0  0  0  0  0  0  0  0
   50.1581   -2.5724   -6.7278 C   0  0  0  0  0  0  0  0  0  0  0  0
   49.7669   -1.4789   -7.2015 O   0  0  0  0  0  0  0  0  0  0  0  0
   49.5219   -3.2195   -5.6150 N   0  0  0  0  0  0  0  0  0  0  0  0
   48.3709   -2.7291   -4.8920 C   0  0  0  0  0  0  0  0  0  0  0  0
   50.2103   -4.4275   -5.3375 C   0  0  0  0  0  0  0  0  0  0  0  0
   49.9569   -5.2845   -4.4288 O   0  0  0  0  0  0  0  0  0  0  0  0
   55.5099   -4.4749   -9.1464 C   0  0  0  0  0  0  0  0  0  0  0  0
   56.4300   -4.4151  -10.1999 C   0  0  0  0  0  0  0  0  0  0  0  0
   57.7263   -4.7782   -9.9070 C   0  0  0  0  0  0  0  0  0  0  0  0
   58.6569   -4.7280  -10.9398 C   0  0  0  0  0  0  0  0  0  0  0  0
   58.2812   -4.3264  -12.2101 C   0  0  0  0  0  0  0  0  0  0  0  0
   56.9937   -3.9640  -12.5088 C   0  0  0  0  0  0  0  0  0  0  0  0
   56.0568   -4.0152  -11.4666 C   0  0  0  0  0  0  0  0  0  0  0  0
   58.1146   -5.1771   -8.6677 N   0  0  0  0  0  0  0  0  0  0  0  0
   57.2255   -5.2318   -7.6636 C   0  0  0  0  0  0  0  0  0  0  0  0
   55.9718   -4.8803   -7.9471 N   0  0  0  0  0  0  0  0  0  0  0  0
   59.2251   -4.2852  -13.2188 O   0  0  0  0  0  0  0  0  0  0  0  0
   60.1735   -3.2392  -13.3388 C   0  0  0  0  0  0  0  0  0  0  0  0
   56.6645   -3.5699  -13.7908 O   0  0  0  0  0  0  0  0  0  0  0  0
   56.1521   -4.5577  -14.6978 C   0  0  0  0  0  0  0  0  0  0  0  0
  3  1  1  0  0  0
  1 15  1  0  0  0
 15 16  1  0  0  0
 16 17  1  0  0  0
 17 18  2  0  0  0
 18 19  1  0  0  0
 19 25  1  0  0  0
 25 26  1  0  0  0
 19 20  2  0  0  0
 20 27  1  0  0  0
 27 28  1  0  0  0
 20 21  1  0  0  0
 17 22  1  0  0  0
 22 23  2  0  0  0
 23 24  1  0  0  0
  3  4  2  0  0  0
  4  5  1  0  0  0
  5  6  2  0  0  0
  6  7  1  0  0  0
  7  8  2  0  0  0
  7  9  1  0  0  0
  9 10  2  0  0  0
  9 11  1  0  0  0
 11 12  1  0  0  0
 11 13  1  0  0  0
 13 14  2  0  0  0
  8  3  1  0  0  0
 24 15  2  0  0  0
 13  6  1  0  0  0
 21 16  2  0  0  0
  1  2  1  0  0  0
M  END
> <minimizedAffinity>
-10.28633

> <CNNscore>
0.5081994534

> <CNNaffinity>
6.2565188408

> <CNN_VS>
3.1795594692

> <CNNaffinity_variance>
0.1368942559

$$$$
[H]c1nc(N([H])c2c([H])c([H])c3c(c2[H])C(=O)N(C([H])([H])[H])C3=O)c2c([H])c(OC([H])([H])[H])c(OC([H])([H])[H])c([H])c2n1


 28 31  0  0  0  0  0  0  0  0999 V2000
   55.5670   -3.8322  -10.7841 N   0  0  0  0  0  0  0  0  0  0  0  0
   54.5715   -3.4808  -10.9074 H   0  0  0  0  0  0  0  0  0  0  0  0
   56.4321   -3.7311  -11.9168 C   0  0  0  0  0  0  0  0  0  0  0  0
   57.8130   -3.7920  -11.6513 C   0  0  0  0  0  0  0  0  0  0  0  0
   58.7604   -3.7369  -12.6431 C   0  0  0  0  0  0  0  0  0  0  0  0
   58.3330   -3.6169  -13.9487 C   0  0  0  0  0  0  0  0  0  0  0  0
   56.9852   -3.5569  -14.2199 C   0  0  0  0  0  0  0  0  0  0  0  0
   56.0164   -3.6131  -13.2139 C   0  0  0  0  0  0  0  0  0  0  0  0
   56.8167   -3.4337  -15.6516 C   0  0  0  0  0  0  0  0  0  0  0  0
   55.7604   -3.3487  -16.3227 O   0  0  0  0  0  0  0  0  0  0  0  0
   58.1258   -3.4214  -16.2416 N   0  0  0  0  0  0  0  0  0  0  0  0
   58.4207   -3.3126  -17.6519 C   0  0  0  0  0  0  0  0  0  0  0  0
   59.0906   -3.5338  -15.2089 C   0  0  0  0  0  0  0  0  0  0  0  0
   60.3600   -3.5601  -15.3199 O   0  0  0  0  0  0  0  0  0  0  0  0
   55.9536   -4.3607   -9.5443 C   0  0  0  0  0  0  0  0  0  0  0  0
   54.9951   -4.5465   -8.5408 C   0  0  0  0  0  0  0  0  0  0  0  0
   55.4384   -5.1027   -7.3609 C   0  0  0  0  0  0  0  0  0  0  0  0
   54.5029   -5.2945   -6.3493 C   0  0  0  0  0  0  0  0  0  0  0  0
   53.1789   -4.9355   -6.5343 C   0  0  0  0  0  0  0  0  0  0  0  0
   52.7309   -4.3817   -7.7051 C   0  0  0  0  0  0  0  0  0  0  0  0
   53.6752   -4.1888   -8.7238 C   0  0  0  0  0  0  0  0  0  0  0  0
   56.7335   -5.4598   -7.1588 N   0  0  0  0  0  0  0  0  0  0  0  0
   57.6459   -5.2777   -8.1264 C   0  0  0  0  0  0  0  0  0  0  0  0
   57.2168   -4.7399   -9.2676 N   0  0  0  0  0  0  0  0  0  0  0  0
   52.2693   -5.1365   -5.5134 O   0  0  0  0  0  0  0  0  0  0  0  0
   51.3227   -6.1910   -5.5270 C   0  0  0  0  0  0  0  0  0  0  0  0
   51.4004   -4.0387   -7.8448 O   0  0  0  0  0  0  0  0  0  0  0  0
   51.0044   -2.6967   -7.5238 C   0  0  0  0  0  0  0  0  0  0  0  0
  3  1  1  0  0  0
  1 15  1  0  0  0
 15 16  1  0  0  0
 16 17  1  0  0  0
 17 18  2  0  0  0
 18 19  1  0  0  0
 19 25  1  0  0  0
 25 26  1  0  0  0
 19 20  2  0  0  0
 20 27  1  0  0  0
 27 28  1  0  0  0
 20 21  1  0  0  0
 17 22  1  0  0  0
 22 23  2  0  0  0
 23 24  1  0  0  0
  3  4  2  0  0  0
  4  5  1  0  0  0
  5  6  2  0  0  0
  6  7  1  0  0  0
  7  8  2  0  0  0
  7  9  1  0  0  0
  9 10  2  0  0  0
  9 11  1  0  0  0
 11 12  1  0  0  0
 11 13  1  0  0  0
 13 14  2  0  0  0
  8  3  1  0  0  0
 24 15  2  0  0  0
 13  6  1  0  0  0
 21 16  2  0  0  0
  1  2  1  0  0  0
M  END
> <minimizedAffinity>
-8.14094

> <CNNscore>
0.4777445495

> <CNNaffinity>
6.0232877731

> <CNN_VS>
2.8775928020

> <CNNaffinity_variance>
0.1089061350

$$$$
[H]OC([H])([H])C([H])(N([H])[H])C([H])([H])c1c(-c2nnn(C([H])([H])[H])n2)on([H])c1=O


 21 22  0  0  0  0  0  0  0  0999 V2000
   50.5428   -3.4166   -6.2434 C   0  0  0  0  0  0  0  0  0  0  0  0
   49.9776   -2.2848   -6.6322 O   0  0  0  0  0  0  0  0  0  0  0  0
   50.4636   -1.8684   -7.7404 N   0  0  0  0  0  0  0  0  0  0  0  0
   51.4189   -2.7565   -8.1471 C   0  0  0  0  0  0  0  0  0  0  0  0
   52.1125   -2.6944   -9.1798 O   0  0  0  0  0  0  0  0  0  0  0  0
   51.4946   -3.7531   -7.2165 C   0  0  0  0  0  0  0  0  0  0  0  0
   50.2522   -1.0247   -8.3230 H   0  0  0  0  0  0  0  0  0  0  0  0
   50.7680   -6.3416   -2.2855 C   0  0  0  0  0  0  0  0  0  0  0  0
   50.2505   -5.4131   -3.2687 N   0  0  0  0  0  0  0  0  0  0  0  0
   49.0605   -4.8475   -3.3189 N   0  0  0  0  0  0  0  0  0  0  0  0
   49.0324   -4.0730   -4.3876 N   0  0  0  0  0  0  0  0  0  0  0  0
   50.2051   -4.1370   -5.0300 C   0  0  0  0  0  0  0  0  0  0  0  0
   50.9547   -4.9748   -4.3231 N   0  0  0  0  0  0  0  0  0  0  0  0
   52.2951   -4.9458   -7.0994 C   0  0  0  0  0  0  0  0  0  0  0  0
   53.6351   -4.8737   -6.4904 C   0  0  0  0  0  0  0  0  0  0  0  0
   53.8796   -5.7815   -5.3890 N   0  0  0  0  0  0  0  0  0  0  0  0
   53.8631   -6.7689   -5.6625 H   0  0  0  0  0  0  0  0  0  0  0  0
   54.7894   -5.4729   -4.9569 H   0  0  0  0  0  0  0  0  0  0  0  0
   54.6378   -5.2786   -7.5840 C   0  0  0  0  0  0  0  0  0  0  0  0
   55.8713   -5.5819   -7.0386 O   0  0  0  0  0  0  0  0  0  0  0  0
   56.4902   -5.7147   -7.8001 H   0  0  0  0  0  0  0  0  0  0  0  0
  8  9  1  0  0  0
  9 10  1  0  0  0
 10 11  2  0  0  0
 11 12  1  0  0  0
 12 13  2  0  0  0
 12  1  1  0  0  0
  1  2  1  0  0  0
  2  3  1  0  0  0
  3  4  1  0  0  0
  4  5  2  0  0  0
  4  6  1  0  0  0
  6 14  1  0  0  0
 14 15  1  0  0  0
 15 16  1  0  0  0
 15 19  1  0  0  0
 19 20  1  0  0  0
 13  9  1  0  0  0
  6  1  2  0  0  0
  3  7  1  0  0  0
 16 17  1  0  0  0
 16 18  1  0  0  0
 20 21  1  0  0  0
M  END
> <minimizedAffinity>
-6.47647

> <CNNscore>
0.8734378815

> <CNNaffinity>
5.8119597435

> <CNN_VS>
5.0763859749

> <CNNaffinity_variance>
0.5016251206

$$$$
[H]OC([H])([H])C([H])(N([H])[H])C([H])([H])c1c(-c2nnn(C([H])([H])[H])n2)on([H])c1=O


 21 22  0  0  0  0  0  0  0  0999 V2000
   53.1919   -3.2778   -8.5703 C   0  0  0  0  0  0  0  0  0  0  0  0
   52.7140   -2.1037   -8.9506 O   0  0  0  0  0  0  0  0  0  0  0  0
   51.5387   -1.8978   -8.4882 N   0  0  0  0  0  0  0  0  0  0  0  0
   51.1764   -2.9860   -7.7456 C   0  0  0  0  0  0  0  0  0  0  0  0
   50.1043   -3.1565   -7.1350 O   0  0  0  0  0  0  0  0  0  0  0  0
   52.2058   -3.8828   -7.7781 C   0  0  0  0  0  0  0  0  0  0  0  0
   50.8797   -1.0906   -8.5888 H   0  0  0  0  0  0  0  0  0  0  0  0
   57.7675   -5.0894   -8.3394 C   0  0  0  0  0  0  0  0  0  0  0  0
   56.5198   -4.5988   -8.8865 N   0  0  0  0  0  0  0  0  0  0  0  0
   56.1688   -4.4758  -10.1515 N   0  0  0  0  0  0  0  0  0  0  0  0
   54.9420   -3.9890  -10.1788 N   0  0  0  0  0  0  0  0  0  0  0  0
   54.4981   -3.7966   -8.9307 C   0  0  0  0  0  0  0  0  0  0  0  0
   55.4901   -4.1801   -8.1355 N   0  0  0  0  0  0  0  0  0  0  0  0
   52.4095   -5.1844   -7.1939 C   0  0  0  0  0  0  0  0  0  0  0  0
   52.5379   -5.3211   -5.7322 C   0  0  0  0  0  0  0  0  0  0  0  0
   51.4513   -6.0051   -5.0624 N   0  0  0  0  0  0  0  0  0  0  0  0
   51.3666   -6.9919   -5.3251 H   0  0  0  0  0  0  0  0  0  0  0  0
   51.6033   -5.8486   -4.0318 H   0  0  0  0  0  0  0  0  0  0  0  0
   53.7835   -6.1869   -5.4790 C   0  0  0  0  0  0  0  0  0  0  0  0
   54.3519   -6.5990   -6.6698 O   0  0  0  0  0  0  0  0  0  0  0  0
   55.0670   -7.2416   -6.4323 H   0  0  0  0  0  0  0  0  0  0  0  0
  8  9  1  0  0  0
  9 10  1  0  0  0
 10 11  2  0  0  0
 11 12  1  0  0  0
 12 13  2  0  0  0
 12  1  1  0  0  0
  1  2  1  0  0  0
  2  3  1  0  0  0
  3  4  1  0  0  0
  4  5  2  0  0  0
  4  6  1  0  0  0
  6 14  1  0  0  0
 14 15  1  0  0  0
 15 16  1  0  0  0
 15 19  1  0  0  0
 19 20  1  0  0  0
 13  9  1  0  0  0
  6  1  2  0  0  0
  3  7  1  0  0  0
 16 17  1  0  0  0
 16 18  1  0  0  0
 20 21  1  0  0  0
M  END
> <minimizedAffinity>
-6.85712

> <CNNscore>
0.7716808319

> <CNNaffinity>
5.5250105858

> <CNN_VS>
4.2635445595

> <CNNaffinity_variance>
0.4116509855

$$$$
[H]OC([H])([H])C([H])(N([H])[H])C([H])([H])c1c(-c2nnn(C([H])([H])[H])n2)on([H])c1=O


 21 22  0  0  0  0  0  0  0  0999 V2000
   52.6476   -3.5102   -8.1723 C   0  0  0  0  0  0  0  0  0  0  0  0
   52.8085   -2.6342   -9.1512 O   0  0  0  0  0  0  0  0  0  0  0  0
   53.8778   -2.8587   -9.8174 N   0  0  0  0  0  0  0  0  0  0  0  0
   54.4966   -3.9494   -9.2749 C   0  0  0  0  0  0  0  0  0  0  0  0
   55.5619   -4.4740   -9.6509 O   0  0  0  0  0  0  0  0  0  0  0  0
   53.7400   -4.3876   -8.2259 C   0  0  0  0  0  0  0  0  0  0  0  0
   54.3037   -2.3714  -10.6403 H   0  0  0  0  0  0  0  0  0  0  0  0
   49.6502   -4.6174   -4.4224 C   0  0  0  0  0  0  0  0  0  0  0  0
   50.1726   -3.9670   -5.6059 N   0  0  0  0  0  0  0  0  0  0  0  0
   49.6442   -2.9801   -6.3026 N   0  0  0  0  0  0  0  0  0  0  0  0
   50.4687   -2.7086   -7.2972 N   0  0  0  0  0  0  0  0  0  0  0  0
   51.5319   -3.5202   -7.2447 C   0  0  0  0  0  0  0  0  0  0  0  0
   51.3353   -4.2989   -6.1871 N   0  0  0  0  0  0  0  0  0  0  0  0
   53.8724   -5.4758   -7.2904 C   0  0  0  0  0  0  0  0  0  0  0  0
   54.6968   -5.3077   -6.0805 C   0  0  0  0  0  0  0  0  0  0  0  0
   54.0594   -5.6533   -4.8270 N   0  0  0  0  0  0  0  0  0  0  0  0
   53.8295   -6.6487   -4.7468 H   0  0  0  0  0  0  0  0  0  0  0  0
   54.7011   -5.3005   -4.0698 H   0  0  0  0  0  0  0  0  0  0  0  0
   55.8822   -6.2780   -6.2174 C   0  0  0  0  0  0  0  0  0  0  0  0
   56.8307   -5.7825   -7.0923 O   0  0  0  0  0  0  0  0  0  0  0  0
   57.4972   -6.5034   -7.2221 H   0  0  0  0  0  0  0  0  0  0  0  0
  8  9  1  0  0  0
  9 10  1  0  0  0
 10 11  2  0  0  0
 11 12  1  0  0  0
 12 13  2  0  0  0
 12  1  1  0  0  0
  1  2  1  0  0  0
  2  3  1  0  0  0
  3  4  1  0  0  0
  4  5  2  0  0  0
  4  6  1  0  0  0
  6 14  1  0  0  0
 14 15  1  0  0  0
 15 16  1  0  0  0
 15 19  1  0  0  0
 19 20  1  0  0  0
 13  9  1  0  0  0
  6  1  2  0  0  0
  3  7  1  0  0  0
 16 17  1  0  0  0
 16 18  1  0  0  0
 20 21  1  0  0  0
M  END
> <minimizedAffinity>
-6.76226

> <CNNscore>
0.6911242604

> <CNNaffinity>
5.5460596085

> <CNN_VS>
3.8330163956

> <CNNaffinity_variance>
0.4512573779

$$$$
[H]OC([H])([H])C([H])(N([H])[H])C([H])([H])c1c(-c2nnn(C([H])([H])[H])n2)on([H])c1=O


 21 22  0  0  0  0  0  0  0  0999 V2000
   53.2216   -3.9338   -8.3761 C   0  0  0  0  0  0  0  0  0  0  0  0
   53.2505   -3.5298   -9.6361 O   0  0  0  0  0  0  0  0  0  0  0  0
   54.4356   -3.5635  -10.1178 N   0  0  0  0  0  0  0  0  0  0  0  0
   55.2792   -4.0149   -9.1425 C   0  0  0  0  0  0  0  0  0  0  0  0
   56.5098   -4.1849   -9.2321 O   0  0  0  0  0  0  0  0  0  0  0  0
   54.5385   -4.2591   -8.0214 C   0  0  0  0  0  0  0  0  0  0  0  0
   54.8130   -3.3180  -11.0630 H   0  0  0  0  0  0  0  0  0  0  0  0
   49.1841   -2.7459   -5.8152 C   0  0  0  0  0  0  0  0  0  0  0  0
   50.2348   -3.5412   -6.4153 N   0  0  0  0  0  0  0  0  0  0  0  0
   50.4091   -4.8471   -6.3630 N   0  0  0  0  0  0  0  0  0  0  0  0
   51.4959   -5.1319   -7.0562 N   0  0  0  0  0  0  0  0  0  0  0  0
   52.0259   -4.0097   -7.5578 C   0  0  0  0  0  0  0  0  0  0  0  0
   51.2312   -3.0264   -7.1514 N   0  0  0  0  0  0  0  0  0  0  0  0
   54.8607   -4.7425   -6.7025 C   0  0  0  0  0  0  0  0  0  0  0  0
   55.3251   -6.1293   -6.5220 C   0  0  0  0  0  0  0  0  0  0  0  0
   56.7014   -6.2862   -6.0995 N   0  0  0  0  0  0  0  0  0  0  0  0
   56.8853   -5.9152   -5.1622 H   0  0  0  0  0  0  0  0  0  0  0  0
   56.9205   -7.3112   -6.2040 H   0  0  0  0  0  0  0  0  0  0  0  0
   54.4784   -6.7330   -5.3889 C   0  0  0  0  0  0  0  0  0  0  0  0
   53.5228   -5.8353   -4.9511 O   0  0  0  0  0  0  0  0  0  0  0  0
   53.1011   -6.2410   -4.1522 H   0  0  0  0  0  0  0  0  0  0  0  0
  8  9  1  0  0  0
  9 10  1  0  0  0
 10 11  2  0  0  0
 11 12  1  0  0  0
 12 13  2  0  0  0
 12  1  1  0  0  0
  1  2  1  0  0  0
  2  3  1  0  0  0
  3  4  1  0  0  0
  4  5  2  0  0  0
  4  6  1  0  0  0
  6 14  1  0  0  0
 14 15  1  0  0  0
 15 16  1  0  0  0
 15 19  1  0  0  0
 19 20  1  0  0  0
 13  9  1  0  0  0
  6  1  2  0  0  0
  3  7  1  0  0  0
 16 17  1  0  0  0
 16 18  1  0  0  0
 20 21  1  0  0  0
M  END
> <minimizedAffinity>
-6.43623

> <CNNscore>
0.6899383664

> <CNNaffinity>
5.5484132767

> <CNN_VS>
3.8280632496

> <CNNaffinity_variance>
0.5771197081

$$$$
[H]OC([H])([H])C([H])(N([H])[H])C([H])([H])c1c(-c2nnn(C([H])([H])[H])n2)on([H])c1=O


 21 22  0  0  0  0  0  0  0  0999 V2000
   53.4923   -4.7766   -7.0888 C   0  0  0  0  0  0  0  0  0  0  0  0
   54.6001   -4.6412   -7.8001 O   0  0  0  0  0  0  0  0  0  0  0  0
   54.4086   -3.9275   -8.8449 N   0  0  0  0  0  0  0  0  0  0  0  0
   53.0974   -3.5441   -8.8644 C   0  0  0  0  0  0  0  0  0  0  0  0
   52.5324   -2.8402   -9.7226 O   0  0  0  0  0  0  0  0  0  0  0  0
   52.4863   -4.0683   -7.7612 C   0  0  0  0  0  0  0  0  0  0  0  0
   55.0532   -3.6250   -9.6123 H   0  0  0  0  0  0  0  0  0  0  0  0
   51.8057   -6.7292   -2.8919 C   0  0  0  0  0  0  0  0  0  0  0  0
   52.6946   -6.4166   -3.9914 N   0  0  0  0  0  0  0  0  0  0  0  0
   53.9261   -6.8397   -4.1987 N   0  0  0  0  0  0  0  0  0  0  0  0
   54.3480   -6.2997   -5.3271 N   0  0  0  0  0  0  0  0  0  0  0  0
   53.3891   -5.5264   -5.8509 C   0  0  0  0  0  0  0  0  0  0  0  0
   52.3649   -5.6078   -5.0096 N   0  0  0  0  0  0  0  0  0  0  0  0
   51.1416   -4.0080   -7.2464 C   0  0  0  0  0  0  0  0  0  0  0  0
   50.6077   -2.7331   -6.7351 C   0  0  0  0  0  0  0  0  0  0  0  0
   50.0857   -1.8204   -7.7309 N   0  0  0  0  0  0  0  0  0  0  0  0
   49.2567   -2.1767   -8.2165 H   0  0  0  0  0  0  0  0  0  0  0  0
   49.9285   -0.9066   -7.2310 H   0  0  0  0  0  0  0  0  0  0  0  0
   49.4103   -3.0861   -5.8368 C   0  0  0  0  0  0  0  0  0  0  0  0
   49.7223   -4.1245   -4.9793 O   0  0  0  0  0  0  0  0  0  0  0  0
   48.8800   -4.3744   -4.5224 H   0  0  0  0  0  0  0  0  0  0  0  0
  8  9  1  0  0  0
  9 10  1  0  0  0
 10 11  2  0  0  0
 11 12  1  0  0  0
 12 13  2  0  0  0
 12  1  1  0  0  0
  1  2  1  0  0  0
  2  3  1  0  0  0
  3  4  1  0  0  0
  4  5  2  0  0  0
  4  6  1  0  0  0
  6 14  1  0  0  0
 14 15  1  0  0  0
 15 16  1  0  0  0
 15 19  1  0  0  0
 19 20  1  0  0  0
 13  9  1  0  0  0
  6  1  2  0  0  0
  3  7  1  0  0  0
 16 17  1  0  0  0
 16 18  1  0  0  0
 20 21  1  0  0  0
M  END
> <minimizedAffinity>
-6.46029

> <CNNscore>
0.6736290455

> <CNNaffinity>
5.8000879288

> <CNN_VS>
3.9071075916

> <CNNaffinity_variance>
0.3711728156

$$$$
[H]OC([H])([H])C([H])(N([H])[H])C([H])([H])c1c(-c2nnn(C([H])([H])[H])n2)on([H])c1=O


 21 22  0  0  0  0  0  0  0  0999 V2000
   51.1844   -3.3477   -7.0637 C   0  0  0  0  0  0  0  0  0  0  0  0
   50.2568   -2.4165   -6.9089 O   0  0  0  0  0  0  0  0  0  0  0  0
   49.4694   -2.6885   -5.9375 N   0  0  0  0  0  0  0  0  0  0  0  0
   49.8681   -3.8726   -5.3846 C   0  0  0  0  0  0  0  0  0  0  0  0
   49.3506   -4.4631   -4.4178 O   0  0  0  0  0  0  0  0  0  0  0  0
   50.9565   -4.3189   -6.0783 C   0  0  0  0  0  0  0  0  0  0  0  0
   48.6428   -2.1801   -5.5446 H   0  0  0  0  0  0  0  0  0  0  0  0
   55.3905   -4.0967   -9.5172 C   0  0  0  0  0  0  0  0  0  0  0  0
   54.0585   -3.6224   -9.2048 N   0  0  0  0  0  0  0  0  0  0  0  0
   53.2587   -2.8748   -9.9397 N   0  0  0  0  0  0  0  0  0  0  0  0
   52.1442   -2.6927   -9.2559 N   0  0  0  0  0  0  0  0  0  0  0  0
   52.2223   -3.3226   -8.0773 C   0  0  0  0  0  0  0  0  0  0  0  0
   53.4192   -3.8975   -8.0580 N   0  0  0  0  0  0  0  0  0  0  0  0
   51.8005   -5.4814   -5.9640 C   0  0  0  0  0  0  0  0  0  0  0  0
   52.6295   -5.6712   -4.7604 C   0  0  0  0  0  0  0  0  0  0  0  0
   52.0135   -6.4092   -3.6773 N   0  0  0  0  0  0  0  0  0  0  0  0
   51.8149   -7.3870   -3.9107 H   0  0  0  0  0  0  0  0  0  0  0  0
   52.6504   -6.2889   -2.8470 H   0  0  0  0  0  0  0  0  0  0  0  0
   53.8428   -6.5129   -5.1901 C   0  0  0  0  0  0  0  0  0  0  0  0
   54.0316   -6.4492   -6.5580 O   0  0  0  0  0  0  0  0  0  0  0  0
   54.7453   -7.1011   -6.7739 H   0  0  0  0  0  0  0  0  0  0  0  0
  8  9  1  0  0  0
  9 10  1  0  0  0
 10 11  2  0  0  0
 11 12  1  0  0  0
 12 13  2  0  0  0
 12  1  1  0  0  0
  1  2  1  0  0  0
  2  3  1  0  0  0
  3  4  1  0  0  0
  4  5  2  0  0  0
  4  6  1  0  0  0
  6 14  1  0  0  0
 14 15  1  0  0  0
 15 16  1  0  0  0
 15 19  1  0  0  0
 19 20  1  0  0  0
 13  9  1  0  0  0
  6  1  2  0  0  0
  3  7  1  0  0  0
 16 17  1  0  0  0
 16 18  1  0  0  0
 20 21  1  0  0  0
M  END
> <minimizedAffinity>
-6.80310

> <CNNscore>
0.6725258231

> <CNNaffinity>
5.3783493042

> <CNN_VS>
3.6170787811

> <CNNaffinity_variance>
0.1387440115

$$$$
[H]OC([H])([H])C([H])(N([H])[H])C([H])([H])c1c(-c2nnn(C([H])([H])[H])n2)on([H])c1=O


 21 22  0  0  0  0  0  0  0  0999 V2000
   52.8700   -3.7304   -8.2040 C   0  0  0  0  0  0  0  0  0  0  0  0
   52.9885   -2.8323   -9.1689 O   0  0  0  0  0  0  0  0  0  0  0  0
   54.1104   -2.9338   -9.7761 N   0  0  0  0  0  0  0  0  0  0  0  0
   54.8128   -3.9571   -9.2050 C   0  0  0  0  0  0  0  0  0  0  0  0
   55.9473   -4.3603   -9.5238 O   0  0  0  0  0  0  0  0  0  0  0  0
   54.0520   -4.4847   -8.2010 C   0  0  0  0  0  0  0  0  0  0  0  0
   54.5252   -2.3953  -10.5723 H   0  0  0  0  0  0  0  0  0  0  0  0
   48.9320   -2.7479   -5.4116 C   0  0  0  0  0  0  0  0  0  0  0  0
   49.9675   -3.4924   -6.0972 N   0  0  0  0  0  0  0  0  0  0  0  0
   50.1648   -4.7960   -6.1200 N   0  0  0  0  0  0  0  0  0  0  0  0
   51.2241   -5.0253   -6.8737 N   0  0  0  0  0  0  0  0  0  0  0  0
   51.7132   -3.8696   -7.3394 C   0  0  0  0  0  0  0  0  0  0  0  0
   50.9218   -2.9229   -6.8485 N   0  0  0  0  0  0  0  0  0  0  0  0
   54.2500   -5.5618   -7.2643 C   0  0  0  0  0  0  0  0  0  0  0  0
   54.9554   -5.3104   -5.9950 C   0  0  0  0  0  0  0  0  0  0  0  0
   54.2594   -5.7182   -4.7923 N   0  0  0  0  0  0  0  0  0  0  0  0
   54.1254   -6.7316   -4.7220 H   0  0  0  0  0  0  0  0  0  0  0  0
   54.8007   -5.3019   -3.9902 H   0  0  0  0  0  0  0  0  0  0  0  0
   56.2396   -6.1560   -6.0304 C   0  0  0  0  0  0  0  0  0  0  0  0
   57.0479   -5.7867   -7.0893 O   0  0  0  0  0  0  0  0  0  0  0  0
   57.7880   -6.4440   -7.1204 H   0  0  0  0  0  0  0  0  0  0  0  0
  8  9  1  0  0  0
  9 10  1  0  0  0
 10 11  2  0  0  0
 11 12  1  0  0  0
 12 13  2  0  0  0
 12  1  1  0  0  0
  1  2  1  0  0  0
  2  3  1  0  0  0
  3  4  1  0  0  0
  4  5  2  0  0  0
  4  6  1  0  0  0
  6 14  1  0  0  0
 14 15  1  0  0  0
 15 16  1  0  0  0
 15 19  1  0  0  0
 19 20  1  0  0  0
 13  9  1  0  0  0
  6  1  2  0  0  0
  3  7  1  0  0  0
 16 17  1  0  0  0
 16 18  1  0  0  0
 20 21  1  0  0  0
M  END
> <minimizedAffinity>
-6.66318

> <CNNscore>
0.6693300009

> <CNNaffinity>
5.5158295631

> <CNN_VS>
3.6919102669

> <CNNaffinity_variance>
0.4796514511

$$$$
[H]OC([H])([H])C([H])(N([H])[H])C([H])([H])c1c(-c2nnn(C([H])([H])[H])n2)on([H])c1=O


 21 22  0  0  0  0  0  0  0  0999 V2000
   51.8519   -2.9023   -7.9394 C   0  0  0  0  0  0  0  0  0  0  0  0
   51.1432   -1.8470   -8.3077 O   0  0  0  0  0  0  0  0  0  0  0  0
   50.0876   -1.7132   -7.5968 N   0  0  0  0  0  0  0  0  0  0  0  0
   50.0574   -2.7290   -6.6836 C   0  0  0  0  0  0  0  0  0  0  0  0
   49.1868   -2.9356   -5.8172 O   0  0  0  0  0  0  0  0  0  0  0  0
   51.1654   -3.5040   -6.8752 C   0  0  0  0  0  0  0  0  0  0  0  0
   49.3185   -1.0031   -7.6147 H   0  0  0  0  0  0  0  0  0  0  0  0
   56.4622   -4.5007   -8.6195 C   0  0  0  0  0  0  0  0  0  0  0  0
   55.1279   -4.0189   -8.9098 N   0  0  0  0  0  0  0  0  0  0  0  0
   54.5756   -3.7851  -10.0841 N   0  0  0  0  0  0  0  0  0  0  0  0
   53.3450   -3.3590   -9.8677 N   0  0  0  0  0  0  0  0  0  0  0  0
   53.1000   -3.3168   -8.5523 C   0  0  0  0  0  0  0  0  0  0  0  0
   54.2182   -3.7300   -7.9671 N   0  0  0  0  0  0  0  0  0  0  0  0
   51.6739   -4.6885   -6.2309 C   0  0  0  0  0  0  0  0  0  0  0  0
   51.0959   -6.0052   -6.5534 C   0  0  0  0  0  0  0  0  0  0  0  0
   49.7799   -5.9881   -7.1576 N   0  0  0  0  0  0  0  0  0  0  0  0
   49.7628   -5.5557   -8.0864 H   0  0  0  0  0  0  0  0  0  0  0  0
   49.4433   -6.9862   -7.1444 H   0  0  0  0  0  0  0  0  0  0  0  0
   52.0193   -6.6459   -7.6033 C   0  0  0  0  0  0  0  0  0  0  0  0
   53.3473   -6.5137   -7.2430 O   0  0  0  0  0  0  0  0  0  0  0  0
   53.8807   -6.8371   -8.0122 H   0  0  0  0  0  0  0  0  0  0  0  0
  8  9  1  0  0  0
  9 10  1  0  0  0
 10 11  2  0  0  0
 11 12  1  0  0  0
 12 13  2  0  0  0
 12  1  1  0  0  0
  1  2  1  0  0  0
  2  3  1  0  0  0
  3  4  1  0  0  0
  4  5  2  0  0  0
  4  6  1  0  0  0
  6 14  1  0  0  0
 14 15  1  0  0  0
 15 16  1  0  0  0
 15 19  1  0  0  0
 19 20  1  0  0  0
 13  9  1  0  0  0
  6  1  2  0  0  0
  3  7  1  0  0  0
 16 17  1  0  0  0
 16 18  1  0  0  0
 20 21  1  0  0  0
M  END
> <minimizedAffinity>
-6.78545

> <CNNscore>
0.6575499177

> <CNNaffinity>
5.6038599014

> <CNN_VS>
3.6848175526

> <CNNaffinity_variance>
0.3786327243

$$$$
[H]OC([H])([H])C([H])(N([H])[H])C([H])([H])c1c(-c2nnn(C([H])([H])[H])n2)on([H])c1=O


 21 22  0  0  0  0  0  0  0  0999 V2000
   53.5954   -3.4612   -8.7956 C   0  0  0  0  0  0  0  0  0  0  0  0
   53.1446   -2.2385   -9.0268 O   0  0  0  0  0  0  0  0  0  0  0  0
   51.9694   -2.0684   -8.5497 N   0  0  0  0  0  0  0  0  0  0  0  0
   51.5787   -3.2340   -7.9537 C   0  0  0  0  0  0  0  0  0  0  0  0
   50.4979   -3.4581   -7.3766 O   0  0  0  0  0  0  0  0  0  0  0  0
   52.5903   -4.1409   -8.0930 C   0  0  0  0  0  0  0  0  0  0  0  0
   51.3276   -1.2413   -8.5514 H   0  0  0  0  0  0  0  0  0  0  0  0
   58.1808   -5.2624   -8.7570 C   0  0  0  0  0  0  0  0  0  0  0  0
   56.9189   -4.7523   -9.2511 N   0  0  0  0  0  0  0  0  0  0  0  0
   56.5375   -4.5725  -10.5004 N   0  0  0  0  0  0  0  0  0  0  0  0
   55.3089   -4.0902  -10.4762 N   0  0  0  0  0  0  0  0  0  0  0  0
   54.8943   -3.9573   -9.2104 C   0  0  0  0  0  0  0  0  0  0  0  0
   55.9061   -4.3730   -8.4574 N   0  0  0  0  0  0  0  0  0  0  0  0
   52.7626   -5.5100   -7.6774 C   0  0  0  0  0  0  0  0  0  0  0  0
   53.2902   -5.8087   -6.3342 C   0  0  0  0  0  0  0  0  0  0  0  0
   54.3518   -4.9430   -5.8641 N   0  0  0  0  0  0  0  0  0  0  0  0
   54.0553   -3.9720   -5.7253 H   0  0  0  0  0  0  0  0  0  0  0  0
   54.7350   -5.4012   -4.9964 H   0  0  0  0  0  0  0  0  0  0  0  0
   52.1277   -5.6017   -5.3488 C   0  0  0  0  0  0  0  0  0  0  0  0
   50.9518   -6.1266   -5.8513 O   0  0  0  0  0  0  0  0  0  0  0  0
   50.2330   -5.8542   -5.2269 H   0  0  0  0  0  0  0  0  0  0  0  0
  8  9  1  0  0  0
  9 10  1  0  0  0
 10 11  2  0  0  0
 11 12  1  0  0  0
 12 13  2  0  0  0
 12  1  1  0  0  0
  1  2  1  0  0  0
  2  3  1  0  0  0
  3  4  1  0  0  0
  4  5  2  0  0  0
  4  6  1  0  0  0
  6 14  1  0  0  0
 14 15  1  0  0  0
 15 16  1  0  0  0
 15 19  1  0  0  0
 19 20  1  0  0  0
 13  9  1  0  0  0
  6  1  2  0  0  0
  3  7  1  0  0  0
 16 17  1  0  0  0
 16 18  1  0  0  0
 20 21  1  0  0  0
M  END
> <minimizedAffinity>
-6.39073

> <CNNscore>
0.6411929727

> <CNNaffinity>
5.3288083076

> <CNN_VS>
3.4167945385

> <CNNaffinity_variance>
0.4539859295

$$$$
[H]c1nc(C([H])([H])n2c(C([H])([H])C([H])([H])[H])nc3c([H])c([H])c([H])c([H])c32)sc1[H]


 17 19  0  0  0  0  0  0  0  0999 V2000
   50.7893   -3.5337   -7.3825 C   0  0  0  0  0  0  0  0  0  0  0  0
   51.5945   -2.6680   -8.0625 N   0  0  0  0  0  0  0  0  0  0  0  0
   52.8022   -3.2201   -8.1850 C   0  0  0  0  0  0  0  0  0  0  0  0
   53.9891   -2.7780   -8.7830 C   0  0  0  0  0  0  0  0  0  0  0  0
   55.1239   -3.5702   -8.7654 C   0  0  0  0  0  0  0  0  0  0  0  0
   55.0493   -4.8002   -8.1447 C   0  0  0  0  0  0  0  0  0  0  0  0
   53.8758   -5.2262   -7.5589 C   0  0  0  0  0  0  0  0  0  0  0  0
   52.7284   -4.4479   -7.5657 C   0  0  0  0  0  0  0  0  0  0  0  0
   51.4827   -4.6382   -7.0709 N   0  0  0  0  0  0  0  0  0  0  0  0
   49.2715   -2.6069   -5.6788 C   0  0  0  0  0  0  0  0  0  0  0  0
   49.3679   -3.2580   -7.0513 C   0  0  0  0  0  0  0  0  0  0  0  0
   50.9981   -5.7948   -6.3562 C   0  0  0  0  0  0  0  0  0  0  0  0
   51.2316   -5.7052   -4.8780 C   0  0  0  0  0  0  0  0  0  0  0  0
   50.4089   -5.3715   -3.9044 N   0  0  0  0  0  0  0  0  0  0  0  0
   50.8147   -5.3567   -2.6776 C   0  0  0  0  0  0  0  0  0  0  0  0
   52.1214   -5.6984   -2.4328 C   0  0  0  0  0  0  0  0  0  0  0  0
   52.6873   -6.0241   -4.0180 S   0  0  0  0  0  0  0  0  0  0  0  0
 10 11  1  0  0  0
 11  1  1  0  0  0
  1  2  2  0  0  0
  2  3  1  0  0  0
  3  4  2  0  0  0
  4  5  1  0  0  0
  5  6  2  0  0  0
  6  7  1  0  0  0
  7  8  2  0  0  0
  8  9  1  0  0  0
  9 12  1  0  0  0
 12 13  1  0  0  0
 13 14  2  0  0  0
 14 15  1  0  0  0
 15 16  2  0  0  0
 16 17  1  0  0  0
  9  1  1  0  0  0
 17 13  1  0  0  0
  8  3  1  0  0  0
M  END
> <minimizedAffinity>
-7.28748

> <CNNscore>
0.6823108792

> <CNNaffinity>
6.1576204300

> <CNN_VS>
4.2014112473

> <CNNaffinity_variance>
0.2602120638

$$$$
[H]c1nc(C([H])([H])n2c(C([H])([H])C([H])([H])[H])nc3c([H])c([H])c([H])c([H])c32)sc1[H]


 17 19  0  0  0  0  0  0  0  0999 V2000
   52.8421   -3.8475   -8.2611 C   0  0  0  0  0  0  0  0  0  0  0  0
   51.9398   -2.8258   -8.3041 N   0  0  0  0  0  0  0  0  0  0  0  0
   51.0513   -3.0038   -7.3256 C   0  0  0  0  0  0  0  0  0  0  0  0
   49.9307   -2.2685   -6.9191 C   0  0  0  0  0  0  0  0  0  0  0  0
   49.1646   -2.6885   -5.8457 C   0  0  0  0  0  0  0  0  0  0  0  0
   49.5370   -3.8460   -5.1936 C   0  0  0  0  0  0  0  0  0  0  0  0
   50.6423   -4.5628   -5.6019 C   0  0  0  0  0  0  0  0  0  0  0  0
   51.4226   -4.1590   -6.6745 C   0  0  0  0  0  0  0  0  0  0  0  0
   52.5300   -4.6776   -7.2555 N   0  0  0  0  0  0  0  0  0  0  0  0
   55.2222   -3.3279   -8.6222 C   0  0  0  0  0  0  0  0  0  0  0  0
   53.9807   -3.9887   -9.2044 C   0  0  0  0  0  0  0  0  0  0  0  0
   53.2333   -5.8777   -6.8700 C   0  0  0  0  0  0  0  0  0  0  0  0
   54.0875   -5.6859   -5.6531 C   0  0  0  0  0  0  0  0  0  0  0  0
   55.2989   -5.1816   -5.5336 N   0  0  0  0  0  0  0  0  0  0  0  0
   55.8671   -5.1045   -4.3754 C   0  0  0  0  0  0  0  0  0  0  0  0
   55.1661   -5.5636   -3.2881 C   0  0  0  0  0  0  0  0  0  0  0  0
   53.7077   -6.0852   -4.0231 S   0  0  0  0  0  0  0  0  0  0  0  0
 10 11  1  0  0  0
 11  1  1  0  0  0
  1  2  2  0  0  0
  2  3  1  0  0  0
  3  4  2  0  0  0
  4  5  1  0  0  0
  5  6  2  0  0  0
  6  7  1  0  0  0
  7  8  2  0  0  0
  8  9  1  0  0  0
  9 12  1  0  0  0
 12 13  1  0  0  0
 13 14  2  0  0  0
 14 15  1  0  0  0
 15 16  2  0  0  0
 16 17  1  0  0  0
  9  1  1  0  0  0
 17 13  1  0  0  0
  8  3  1  0  0  0
M  END
> <minimizedAffinity>
-7.81477

> <CNNscore>
0.4872603714

> <CNNaffinity>
5.9313879013

> <CNN_VS>
2.8901302814

> <CNNaffinity_variance>
0.2074584514

$$$$
[H]c1nc(C([H])([H])n2c(C([H])([H])C([H])([H])[H])nc3c([H])c([H])c([H])c([H])c32)sc1[H]


 17 19  0  0  0  0  0  0  0  0999 V2000
   54.2247   -5.7694   -6.6511 C   0  0  0  0  0  0  0  0  0  0  0  0
   52.9706   -6.2428   -6.3998 N   0  0  0  0  0  0  0  0  0  0  0  0
   52.0860   -5.3152   -6.7677 C   0  0  0  0  0  0  0  0  0  0  0  0
   50.6864   -5.2750   -6.7329 C   0  0  0  0  0  0  0  0  0  0  0  0
   50.0025   -4.1614   -7.1885 C   0  0  0  0  0  0  0  0  0  0  0  0
   50.7378   -3.0998   -7.6744 C   0  0  0  0  0  0  0  0  0  0  0  0
   52.1157   -3.1493   -7.7043 C   0  0  0  0  0  0  0  0  0  0  0  0
   52.8194   -4.2554   -7.2527 C   0  0  0  0  0  0  0  0  0  0  0  0
   54.1409   -4.5398   -7.1791 N   0  0  0  0  0  0  0  0  0  0  0  0
   55.1854   -7.6319   -5.3575 C   0  0  0  0  0  0  0  0  0  0  0  0
   55.4699   -6.5269   -6.3649 C   0  0  0  0  0  0  0  0  0  0  0  0
   55.2366   -3.6939   -7.5880 C   0  0  0  0  0  0  0  0  0  0  0  0
   55.7679   -4.0452   -8.9451 C   0  0  0  0  0  0  0  0  0  0  0  0
   55.2264   -3.8950  -10.1369 N   0  0  0  0  0  0  0  0  0  0  0  0
   55.8608   -4.2696  -11.1986 C   0  0  0  0  0  0  0  0  0  0  0  0
   57.1063   -4.8235  -11.0365 C   0  0  0  0  0  0  0  0  0  0  0  0
   57.2817   -4.7656   -9.3321 S   0  0  0  0  0  0  0  0  0  0  0  0
 10 11  1  0  0  0
 11  1  1  0  0  0
  1  2  2  0  0  0
  2  3  1  0  0  0
  3  4  2  0  0  0
  4  5  1  0  0  0
  5  6  2  0  0  0
  6  7  1  0  0  0
  7  8  2  0  0  0
  8  9  1  0  0  0
  9 12  1  0  0  0
 12 13  1  0  0  0
 13 14  2  0  0  0
 14 15  1  0  0  0
 15 16  2  0  0  0
 16 17  1  0  0  0
  9  1  1  0  0  0
 17 13  1  0  0  0
  8  3  1  0  0  0
M  END
> <minimizedAffinity>
-6.46894

> <CNNscore>
0.4090028703

> <CNNaffinity>
5.6346998215

> <CNN_VS>
2.3046083450

> <CNNaffinity_variance>
0.0942302272

$$$$
[H]c1nc(C([H])([H])n2c(C([H])([H])C([H])([H])[H])nc3c([H])c([H])c([H])c([H])c32)sc1[H]


 17 19  0  0  0  0  0  0  0  0999 V2000
   50.4029   -4.3848   -6.0812 C   0  0  0  0  0  0  0  0  0  0  0  0
   49.9985   -4.2415   -4.7866 N   0  0  0  0  0  0  0  0  0  0  0  0
   50.7806   -4.9950   -4.0126 C   0  0  0  0  0  0  0  0  0  0  0  0
   50.8103   -5.2201   -2.6305 C   0  0  0  0  0  0  0  0  0  0  0  0
   51.7503   -6.0712   -2.0759 C   0  0  0  0  0  0  0  0  0  0  0  0
   52.6506   -6.6862   -2.9214 C   0  0  0  0  0  0  0  0  0  0  0  0
   52.6129   -6.4577   -4.2810 C   0  0  0  0  0  0  0  0  0  0  0  0
   51.6794   -5.6091   -4.8560 C   0  0  0  0  0  0  0  0  0  0  0  0
   51.4429   -5.2295   -6.1338 N   0  0  0  0  0  0  0  0  0  0  0  0
   50.0595   -2.2064   -7.1775 C   0  0  0  0  0  0  0  0  0  0  0  0
   49.7611   -3.6981   -7.2313 C   0  0  0  0  0  0  0  0  0  0  0  0
   52.1642   -5.6462   -7.3125 C   0  0  0  0  0  0  0  0  0  0  0  0
   53.3077   -4.7362   -7.6469 C   0  0  0  0  0  0  0  0  0  0  0  0
   54.5342   -4.6979   -7.1669 N   0  0  0  0  0  0  0  0  0  0  0  0
   55.3806   -3.8208   -7.5964 C   0  0  0  0  0  0  0  0  0  0  0  0
   54.9554   -2.9415   -8.5609 C   0  0  0  0  0  0  0  0  0  0  0  0
   53.3334   -3.4484   -8.7876 S   0  0  0  0  0  0  0  0  0  0  0  0
 10 11  1  0  0  0
 11  1  1  0  0  0
  1  2  2  0  0  0
  2  3  1  0  0  0
  3  4  2  0  0  0
  4  5  1  0  0  0
  5  6  2  0  0  0
  6  7  1  0  0  0
  7  8  2  0  0  0
  8  9  1  0  0  0
  9 12  1  0  0  0
 12 13  1  0  0  0
 13 14  2  0  0  0
 14 15  1  0  0  0
 15 16  2  0  0  0
 16 17  1  0  0  0
  9  1  1  0  0  0
 17 13  1  0  0  0
  8  3  1  0  0  0
M  END
> <minimizedAffinity>
-6.70762

> <CNNscore>
0.4052710831

> <CNNaffinity>
5.8363819122

> <CNN_VS>
2.3653168678

> <CNNaffinity_variance>
0.1548264772

$$$$
[H]c1nc(C([H])([H])n2c(C([H])([H])C([H])([H])[H])nc3c([H])c([H])c([H])c([H])c32)sc1[H]


 17 19  0  0  0  0  0  0  0  0999 V2000
   53.5487   -4.3443   -7.8762 C   0  0  0  0  0  0  0  0  0  0  0  0
   52.7750   -3.2955   -8.2778 N   0  0  0  0  0  0  0  0  0  0  0  0
   51.6759   -3.2663   -7.5231 C   0  0  0  0  0  0  0  0  0  0  0  0
   50.5632   -2.4159   -7.5036 C   0  0  0  0  0  0  0  0  0  0  0  0
   49.5395   -2.6166   -6.5939 C   0  0  0  0  0  0  0  0  0  0  0  0
   49.6493   -3.6732   -5.7134 C   0  0  0  0  0  0  0  0  0  0  0  0
   50.7492   -4.5047   -5.7408 C   0  0  0  0  0  0  0  0  0  0  0  0
   51.7850   -4.3206   -6.6440 C   0  0  0  0  0  0  0  0  0  0  0  0
   52.9438   -4.9847   -6.8652 N   0  0  0  0  0  0  0  0  0  0  0  0
   55.0287   -3.9426   -9.8032 C   0  0  0  0  0  0  0  0  0  0  0  0
   54.8537   -4.6960   -8.4922 C   0  0  0  0  0  0  0  0  0  0  0  0
   53.4310   -6.1437   -6.1562 C   0  0  0  0  0  0  0  0  0  0  0  0
   54.1182   -5.7931   -4.8709 C   0  0  0  0  0  0  0  0  0  0  0  0
   53.6499   -5.7448   -3.6402 N   0  0  0  0  0  0  0  0  0  0  0  0
   54.4203   -5.4141   -2.6567 C   0  0  0  0  0  0  0  0  0  0  0  0
   55.7300   -5.1187   -2.9425 C   0  0  0  0  0  0  0  0  0  0  0  0
   55.7628   -5.3420   -4.6420 S   0  0  0  0  0  0  0  0  0  0  0  0
 10 11  1  0  0  0
 11  1  1  0  0  0
  1  2  2  0  0  0
  2  3  1  0  0  0
  3  4  2  0  0  0
  4  5  1  0  0  0
  5  6  2  0  0  0
  6  7  1  0  0  0
  7  8  2  0  0  0
  8  9  1  0  0  0
  9 12  1  0  0  0
 12 13  1  0  0  0
 13 14  2  0  0  0
 14 15  1  0  0  0
 15 16  2  0  0  0
 16 17  1  0  0  0
  9  1  1  0  0  0
 17 13  1  0  0  0
  8  3  1  0  0  0
M  END
> <minimizedAffinity>
-7.58739

> <CNNscore>
0.3777326643

> <CNNaffinity>
5.8281621933

> <CNN_VS>
2.2014873028

> <CNNaffinity_variance>
0.2349719256

$$$$
[H]c1nc(C([H])([H])n2c(C([H])([H])C([H])([H])[H])nc3c([H])c([H])c([H])c([H])c32)sc1[H]


 17 19  0  0  0  0  0  0  0  0999 V2000
   52.5246   -4.1417   -7.6978 C   0  0  0  0  0  0  0  0  0  0  0  0
   51.6122   -3.1333   -7.7999 N   0  0  0  0  0  0  0  0  0  0  0  0
   50.7502   -3.2377   -6.7878 C   0  0  0  0  0  0  0  0  0  0  0  0
   49.6334   -2.4799   -6.4132 C   0  0  0  0  0  0  0  0  0  0  0  0
   48.8983   -2.8170   -5.2901 C   0  0  0  0  0  0  0  0  0  0  0  0
   49.2976   -3.9153   -4.5565 C   0  0  0  0  0  0  0  0  0  0  0  0
   50.3988   -4.6549   -4.9338 C   0  0  0  0  0  0  0  0  0  0  0  0
   51.1482   -4.3338   -6.0553 C   0  0  0  0  0  0  0  0  0  0  0  0
   52.2453   -4.8899   -6.6208 N   0  0  0  0  0  0  0  0  0  0  0  0
   54.7284   -3.3126   -8.4198 C   0  0  0  0  0  0  0  0  0  0  0  0
   53.6404   -4.3507   -8.6557 C   0  0  0  0  0  0  0  0  0  0  0  0
   52.9691   -6.0498   -6.1579 C   0  0  0  0  0  0  0  0  0  0  0  0
   53.9488   -5.7282   -5.0697 C   0  0  0  0  0  0  0  0  0  0  0  0
   53.7784   -5.6521   -3.7653 N   0  0  0  0  0  0  0  0  0  0  0  0
   54.7686   -5.3556   -2.9897 C   0  0  0  0  0  0  0  0  0  0  0  0
   55.9901   -5.1261   -3.5725 C   0  0  0  0  0  0  0  0  0  0  0  0
   55.6212   -5.3576   -5.2307 S   0  0  0  0  0  0  0  0  0  0  0  0
 10 11  1  0  0  0
 11  1  1  0  0  0
  1  2  2  0  0  0
  2  3  1  0  0  0
  3  4  2  0  0  0
  4  5  1  0  0  0
  5  6  2  0  0  0
  6  7  1  0  0  0
  7  8  2  0  0  0
  8  9  1  0  0  0
  9 12  1  0  0  0
 12 13  1  0  0  0
 13 14  2  0  0  0
 14 15  1  0  0  0
 15 16  2  0  0  0
 16 17  1  0  0  0
  9  1  1  0  0  0
 17 13  1  0  0  0
  8  3  1  0  0  0
M  END
> <minimizedAffinity>
-7.73075

> <CNNscore>
0.3652728498

> <CNNaffinity>
5.8549051285

> <CNN_VS>
2.1386377811

> <CNNaffinity_variance>
0.2932731509

$$$$
[H]c1nc(C([H])([H])n2c(C([H])([H])C([H])([H])[H])nc3c([H])c([H])c([H])c([H])c32)sc1[H]


 17 19  0  0  0  0  0  0  0  0999 V2000
   54.1361   -3.8810   -9.3166 C   0  0  0  0  0  0  0  0  0  0  0  0
   55.0069   -3.9001  -10.3660 N   0  0  0  0  0  0  0  0  0  0  0  0
   56.1661   -4.4079   -9.9453 C   0  0  0  0  0  0  0  0  0  0  0  0
   57.3835   -4.6519  -10.5934 C   0  0  0  0  0  0  0  0  0  0  0  0
   58.4510   -5.1997   -9.9035 C   0  0  0  0  0  0  0  0  0  0  0  0
   58.2790   -5.4956   -8.5668 C   0  0  0  0  0  0  0  0  0  0  0  0
   57.0761   -5.2514   -7.9380 C   0  0  0  0  0  0  0  0  0  0  0  0
   55.9950   -4.7033   -8.6113 C   0  0  0  0  0  0  0  0  0  0  0  0
   54.7390   -4.3764   -8.2262 N   0  0  0  0  0  0  0  0  0  0  0  0
   52.6465   -2.0004   -8.7601 C   0  0  0  0  0  0  0  0  0  0  0  0
   52.7420   -3.3759   -9.4048 C   0  0  0  0  0  0  0  0  0  0  0  0
   54.1644   -4.5316   -6.9112 C   0  0  0  0  0  0  0  0  0  0  0  0
   52.8287   -5.2117   -6.9366 C   0  0  0  0  0  0  0  0  0  0  0  0
   52.4616   -6.3476   -7.4944 N   0  0  0  0  0  0  0  0  0  0  0  0
   51.2416   -6.7627   -7.3981 C   0  0  0  0  0  0  0  0  0  0  0  0
   50.3544   -5.9820   -6.6996 C   0  0  0  0  0  0  0  0  0  0  0  0
   51.3583   -4.6776   -6.2201 S   0  0  0  0  0  0  0  0  0  0  0  0
 10 11  1  0  0  0
 11  1  1  0  0  0
  1  2  2  0  0  0
  2  3  1  0  0  0
  3  4  2  0  0  0
  4  5  1  0  0  0
  5  6  2  0  0  0
  6  7  1  0  0  0
  7  8  2  0  0  0
  8  9  1  0  0  0
  9 12  1  0  0  0
 12 13  1  0  0  0
 13 14  2  0  0  0
 14 15  1  0  0  0
 15 16  2  0  0  0
 16 17  1  0  0  0
  9  1  1  0  0  0
 17 13  1  0  0  0
  8  3  1  0  0  0
M  END
> <minimizedAffinity>
-6.71428

> <CNNscore>
0.3600918949

> <CNNaffinity>
5.5446710587

> <CNN_VS>
1.9965910912

> <CNNaffinity_variance>
0.1502566040

$$$$
[H]c1nc(C([H])([H])n2c(C([H])([H])C([H])([H])[H])nc3c([H])c([H])c([H])c([H])c32)sc1[H]


 17 19  0  0  0  0  0  0  0  0999 V2000
   51.7003   -3.3538   -7.9347 C   0  0  0  0  0  0  0  0  0  0  0  0
   50.7618   -2.4945   -7.4440 N   0  0  0  0  0  0  0  0  0  0  0  0
   50.2096   -3.0435   -6.3613 C   0  0  0  0  0  0  0  0  0  0  0  0
   49.2117   -2.6050   -5.4818 C   0  0  0  0  0  0  0  0  0  0  0  0
   48.8192   -3.3924   -4.4134 C   0  0  0  0  0  0  0  0  0  0  0  0
   49.4376   -4.6141   -4.2436 C   0  0  0  0  0  0  0  0  0  0  0  0
   50.4192   -5.0366   -5.1153 C   0  0  0  0  0  0  0  0  0  0  0  0
   50.8265   -4.2628   -6.1913 C   0  0  0  0  0  0  0  0  0  0  0  0
   51.7473   -4.4511   -7.1657 N   0  0  0  0  0  0  0  0  0  0  0  0
   53.7719   -2.3056   -8.7564 C   0  0  0  0  0  0  0  0  0  0  0  0
   52.5216   -3.0833   -9.1424 C   0  0  0  0  0  0  0  0  0  0  0  0
   52.6067   -5.5975   -7.3403 C   0  0  0  0  0  0  0  0  0  0  0  0
   53.8830   -5.4919   -6.5610 C   0  0  0  0  0  0  0  0  0  0  0  0
   55.0800   -5.0895   -6.9373 N   0  0  0  0  0  0  0  0  0  0  0  0
   56.0620   -5.0741   -6.0973 C   0  0  0  0  0  0  0  0  0  0  0  0
   55.8108   -5.4888   -4.8131 C   0  0  0  0  0  0  0  0  0  0  0  0
   54.1442   -5.8803   -4.9053 S   0  0  0  0  0  0  0  0  0  0  0  0
 10 11  1  0  0  0
 11  1  1  0  0  0
  1  2  2  0  0  0
  2  3  1  0  0  0
  3  4  2  0  0  0
  4  5  1  0  0  0
  5  6  2  0  0  0
  6  7  1  0  0  0
  7  8  2  0  0  0
  8  9  1  0  0  0
  9 12  1  0  0  0
 12 13  1  0  0  0
 13 14  2  0  0  0
 14 15  1  0  0  0
 15 16  2  0  0  0
 16 17  1  0  0  0
  9  1  1  0  0  0
 17 13  1  0  0  0
  8  3  1  0  0  0
M  END
> <minimizedAffinity>
-7.24836

> <CNNscore>
0.3238460124

> <CNNaffinity>
5.6955909729

> <CNN_VS>
1.8444944620

> <CNNaffinity_variance>
0.2096363753

$$$$
[H]c1nc(C([H])([H])n2c(C([H])([H])C([H])([H])[H])nc3c([H])c([H])c([H])c([H])c32)sc1[H]


 17 19  0  0  0  0  0  0  0  0999 V2000
   55.9419   -4.7206   -7.1341 C   0  0  0  0  0  0  0  0  0  0  0  0
   57.1242   -5.1833   -7.6324 N   0  0  0  0  0  0  0  0  0  0  0  0
   57.1491   -4.9539   -8.9459 C   0  0  0  0  0  0  0  0  0  0  0  0
   58.1040   -5.2197   -9.9354 C   0  0  0  0  0  0  0  0  0  0  0  0
   57.8691   -4.8678  -11.2532 C   0  0  0  0  0  0  0  0  0  0  0  0
   56.6732   -4.2512  -11.5588 C   0  0  0  0  0  0  0  0  0  0  0  0
   55.7396   -3.9938  -10.5770 C   0  0  0  0  0  0  0  0  0  0  0  0
   55.9557   -4.3385   -9.2515 C   0  0  0  0  0  0  0  0  0  0  0  0
   55.2122   -4.1959   -8.1292 N   0  0  0  0  0  0  0  0  0  0  0  0
   55.2743   -6.2556   -5.3277 C   0  0  0  0  0  0  0  0  0  0  0  0
   55.5545   -4.8073   -5.7028 C   0  0  0  0  0  0  0  0  0  0  0  0
   53.9024   -3.5987   -8.0237 C   0  0  0  0  0  0  0  0  0  0  0  0
   52.8448   -4.5829   -7.6234 C   0  0  0  0  0  0  0  0  0  0  0  0
   52.7549   -5.8772   -7.8532 N   0  0  0  0  0  0  0  0  0  0  0  0
   51.7453   -6.5538   -7.4139 C   0  0  0  0  0  0  0  0  0  0  0  0
   50.7822   -5.8779   -6.7069 C   0  0  0  0  0  0  0  0  0  0  0  0
   51.4093   -4.2823   -6.7237 S   0  0  0  0  0  0  0  0  0  0  0  0
 10 11  1  0  0  0
 11  1  1  0  0  0
  1  2  2  0  0  0
  2  3  1  0  0  0
  3  4  2  0  0  0
  4  5  1  0  0  0
  5  6  2  0  0  0
  6  7  1  0  0  0
  7  8  2  0  0  0
  8  9  1  0  0  0
  9 12  1  0  0  0
 12 13  1  0  0  0
 13 14  2  0  0  0
 14 15  1  0  0  0
 15 16  2  0  0  0
 16 17  1  0  0  0
  9  1  1  0  0  0
 17 13  1  0  0  0
  8  3  1  0  0  0
M  END
> <minimizedAffinity>
-6.40297

> <CNNscore>
0.3059946299

> <CNNaffinity>
5.2883458138

> <CNN_VS>
1.6182054281

> <CNNaffinity_variance>
0.2106234282

$$$$
[H]N=C(c1c([H])c([H])c([H])c(C(=O)[C@]([H])(N([H])[H])C([H])([H])C([H])([H])C([H])([H])C([H])([H])N([H])C(=O)[C@]([H])(N([H])C(=O)C([H])([H])c2c([H])c([H])c(C(=O)N3C([H])([H])C([H])([H])N(C([H])([H])[H])C([H])([H])C([H])([H])C3([H])[H])c([H])c2[H])C([H])([H])c2c([H])c([H])c([H])c([H])c2[H])c1[H])N([H])[H]


 55 58  0  0  0  0  0  0  0  0999 V2000
   53.7560   -4.4568   -7.7074 C   0  0  0  0  0  0  0  0  0  0  0  0
   55.3693   -4.3111   -9.6501 N   0  0  0  0  0  0  0  0  0  0  0  0
   54.2044   -3.9241   -9.0130 C   0  0  0  0  0  0  0  0  0  0  0  0
   53.4489   -3.0528   -9.5490 O   0  0  0  0  0  0  0  0  0  0  0  0
   55.9635   -5.0953   -9.1854 H   0  0  0  0  0  0  0  0  0  0  0  0
   55.8873   -3.8069  -10.8625 C   0  0  0  0  0  0  0  0  0  0  0  0
   57.1414   -4.4764  -11.3214 C   0  0  0  0  0  0  0  0  0  0  0  0
   57.7737   -3.6634  -12.4430 C   0  0  0  0  0  0  0  0  0  0  0  0
   57.1041   -3.9506  -13.7407 C   0  0  0  0  0  0  0  0  0  0  0  0
   59.2330   -3.3162  -14.8523 N   0  0  0  0  0  0  0  0  0  0  0  0
   57.8094   -3.2679  -14.9174 C   0  0  0  0  0  0  0  0  0  0  0  0
   59.6210   -3.3182  -15.8433 H   0  0  0  0  0  0  0  0  0  0  0  0
   59.7033   -2.5431  -14.3830 H   0  0  0  0  0  0  0  0  0  0  0  0
   57.2298   -3.7480  -16.1954 C   0  0  0  0  0  0  0  0  0  0  0  0
   57.0271   -4.9639  -16.3724 O   0  0  0  0  0  0  0  0  0  0  0  0
   56.8931   -2.7807  -17.2408 C   0  0  0  0  0  0  0  0  0  0  0  0
   55.5932   -2.7132  -17.6832 C   0  0  0  0  0  0  0  0  0  0  0  0
   55.2284   -1.7847  -18.6450 C   0  0  0  0  0  0  0  0  0  0  0  0
   56.1921   -0.9160  -19.1639 C   0  0  0  0  0  0  0  0  0  0  0  0
   57.4987   -0.9559  -18.7453 C   0  0  0  0  0  0  0  0  0  0  0  0
   57.7918   -1.9167  -17.7743 C   0  0  0  0  0  0  0  0  0  0  0  0
   58.5309   -0.0671  -19.2315 C   0  0  0  0  0  0  0  0  0  0  0  0
   58.6785    0.1114  -20.6239 N   0  0  0  0  0  0  0  0  0  0  0  0
   59.3109    0.5473  -18.4401 N   0  0  0  0  0  0  0  0  0  0  0  0
   59.5773   -0.1345  -21.0729 H   0  0  0  0  0  0  0  0  0  0  0  0
   57.9011    0.4794  -21.1854 H   0  0  0  0  0  0  0  0  0  0  0  0
   59.2367    0.4362  -17.4222 H   0  0  0  0  0  0  0  0  0  0  0  0
   54.5173   -5.2206   -6.8842 N   0  0  0  0  0  0  0  0  0  0  0  0
   55.2858   -5.9802   -6.0604 C   0  0  0  0  0  0  0  0  0  0  0  0
   56.4916   -5.7286   -5.6928 O   0  0  0  0  0  0  0  0  0  0  0  0
   55.5828   -4.4043   -7.1082 H   0  0  0  0  0  0  0  0  0  0  0  0
   54.7951   -7.2783   -5.4267 C   0  0  0  0  0  0  0  0  0  0  0  0
   54.4801   -6.9071   -4.0113 C   0  0  0  0  0  0  0  0  0  0  0  0
   53.6026   -5.9413   -3.6756 C   0  0  0  0  0  0  0  0  0  0  0  0
   53.3508   -5.6865   -2.3160 C   0  0  0  0  0  0  0  0  0  0  0  0
   53.9551   -6.3741   -1.3151 C   0  0  0  0  0  0  0  0  0  0  0  0
   54.8657   -7.3764   -1.7367 C   0  0  0  0  0  0  0  0  0  0  0  0
   55.1264   -7.6412   -3.0485 C   0  0  0  0  0  0  0  0  0  0  0  0
   53.8120   -6.1684    0.1022 C   0  0  0  0  0  0  0  0  0  0  0  0
   54.4817   -5.0743    0.4941 O   0  0  0  0  0  0  0  0  0  0  0  0
   53.1640   -6.8142    1.1318 N   0  0  0  0  0  0  0  0  0  0  0  0
   53.4534   -6.1650    2.4697 C   0  0  0  0  0  0  0  0  0  0  0  0
   54.3298   -7.2133    3.1422 C   0  0  0  0  0  0  0  0  0  0  0  0
   53.5232   -8.1703    3.9456 C   0  0  0  0  0  0  0  0  0  0  0  0
   52.5716   -8.9695    3.2375 N   0  0  0  0  0  0  0  0  0  0  0  0
   51.2152   -8.7028    3.6960 C   0  0  0  0  0  0  0  0  0  0  0  0
   52.7302   -9.1040    1.8424 C   0  0  0  0  0  0  0  0  0  0  0  0
   52.2881   -7.9143    0.9999 C   0  0  0  0  0  0  0  0  0  0  0  0
   52.3080   -4.9011   -7.9330 C   0  0  0  0  0  0  0  0  0  0  0  0
   51.3272   -4.2761   -7.0408 C   0  0  0  0  0  0  0  0  0  0  0  0
   50.7807   -3.0471   -7.4719 C   0  0  0  0  0  0  0  0  0  0  0  0
   49.8360   -2.4115   -6.7010 C   0  0  0  0  0  0  0  0  0  0  0  0
   49.4146   -2.9561   -5.5147 C   0  0  0  0  0  0  0  0  0  0  0  0
   49.9426   -4.1389   -5.1017 C   0  0  0  0  0  0  0  0  0  0  0  0
   50.9043   -4.8115   -5.8597 C   0  0  0  0  0  0  0  0  0  0  0  0
 10 11  1  0  0  0
 11  9  1  0  0  0
  9  8  1  0  0  0
  8  7  1  0  0  0
  7  6  1  0  0  0
  6  2  1  0  0  0
  2  3  1  0  0  0
  3  4  2  0  0  0
  3  1  1  0  0  0
  1 49  1  0  0  0
 49 50  1  0  0  0
 50 51  2  0  0  0
 51 52  1  0  0  0
 52 53  2  0  0  0
 53 54  1  0  0  0
 54 55  2  0  0  0
  1 28  1  0  0  0
 28 29  1  0  0  0
 29 30  2  0  0  0
 29 32  1  0  0  0
 32 33  1  0  0  0
 33 34  2  0  0  0
 34 35  1  0  0  0
 35 36  2  0  0  0
 36 37  1  0  0  0
 37 38  2  0  0  0
 36 39  1  0  0  0
 39 40  2  0  0  0
 39 41  1  0  0  0
 41 42  1  0  0  0
 42 43  1  0  0  0
 43 44  1  0  0  0
 44 45  1  0  0  0
 45 46  1  0  0  0
 45 47  1  0  0  0
 47 48  1  0  0  0
 11 14  1  0  0  0
 14 15  2  0  0  0
 14 16  1  0  0  0
 16 17  2  0  0  0
 17 18  1  0  0  0
 18 19  2  0  0  0
 19 20  1  0  0  0
 20 21  2  0  0  0
 20 22  1  0  0  0
 22 23  1  0  0  0
 22 24  2  0  0  0
 55 50  1  0  0  0
 38 33  1  0  0  0
 48 41  1  0  0  0
 21 16  1  0  0  0
 10 12  1  0  0  0
 10 13  1  0  0  0
  2  5  1  0  0  0
 28 31  1  0  0  0
 23 25  1  0  0  0
 23 26  1  0  0  0
 24 27  1  0  0  0
M  END
> <minimizedAffinity>
-9.70939

> <CNNscore>
0.5008568168

> <CNNaffinity>
7.1812276840

> <CNN_VS>
3.5967669487

> <CNNaffinity_variance>
0.0274235904

$$$$
[H]N=C(c1c([H])c([H])c([H])c(C(=O)[C@]([H])(N([H])[H])C([H])([H])C([H])([H])C([H])([H])C([H])([H])N([H])C(=O)[C@]([H])(N([H])C(=O)C([H])([H])c2c([H])c([H])c(C(=O)N3C([H])([H])C([H])([H])N(C([H])([H])[H])C([H])([H])C([H])([H])C3([H])[H])c([H])c2[H])C([H])([H])c2c([H])c([H])c([H])c([H])c2[H])c1[H])N([H])[H]


 55 58  0  0  0  0  0  0  0  0999 V2000
   53.8367   -4.2711   -7.5850 C   0  0  0  0  0  0  0  0  0  0  0  0
   55.5181   -4.4500   -9.4663 N   0  0  0  0  0  0  0  0  0  0  0  0
   54.3315   -3.9665   -8.9458 C   0  0  0  0  0  0  0  0  0  0  0  0
   53.5959   -3.2036   -9.6489 O   0  0  0  0  0  0  0  0  0  0  0  0
   56.0950   -5.1402   -8.8541 H   0  0  0  0  0  0  0  0  0  0  0  0
   56.0790   -4.1571  -10.7281 C   0  0  0  0  0  0  0  0  0  0  0  0
   57.5236   -4.5151  -10.8572 C   0  0  0  0  0  0  0  0  0  0  0  0
   58.0228   -4.1329  -12.2441 C   0  0  0  0  0  0  0  0  0  0  0  0
   56.8854   -3.7462  -13.1227 C   0  0  0  0  0  0  0  0  0  0  0  0
   58.7559   -3.3820  -14.7160 N   0  0  0  0  0  0  0  0  0  0  0  0
   57.3404   -3.4365  -14.5528 C   0  0  0  0  0  0  0  0  0  0  0  0
   58.9976   -3.6785  -15.7091 H   0  0  0  0  0  0  0  0  0  0  0  0
   59.2035   -2.4746  -14.5919 H   0  0  0  0  0  0  0  0  0  0  0  0
   56.6397   -4.3311  -15.5059 C   0  0  0  0  0  0  0  0  0  0  0  0
   56.2347   -5.4480  -15.1330 O   0  0  0  0  0  0  0  0  0  0  0  0
   56.4237   -3.8864  -16.8835 C   0  0  0  0  0  0  0  0  0  0  0  0
   55.5284   -2.8693  -17.1156 C   0  0  0  0  0  0  0  0  0  0  0  0
   55.3249   -2.3959  -18.4020 C   0  0  0  0  0  0  0  0  0  0  0  0
   56.0362   -2.9605  -19.4640 C   0  0  0  0  0  0  0  0  0  0  0  0
   56.9374   -3.9772  -19.2684 C   0  0  0  0  0  0  0  0  0  0  0  0
   57.0900   -4.4018  -17.9461 C   0  0  0  0  0  0  0  0  0  0  0  0
   57.7160   -4.5821  -20.3265 C   0  0  0  0  0  0  0  0  0  0  0  0
   58.9463   -5.1947  -20.0047 N   0  0  0  0  0  0  0  0  0  0  0  0
   57.3263   -4.5678  -21.5348 N   0  0  0  0  0  0  0  0  0  0  0  0
   59.8156   -4.8441  -20.4421 H   0  0  0  0  0  0  0  0  0  0  0  0
   58.9782   -5.9787  -19.3418 H   0  0  0  0  0  0  0  0  0  0  0  0
   56.4403   -4.1255  -21.8061 H   0  0  0  0  0  0  0  0  0  0  0  0
   54.5949   -4.7926   -6.5882 N   0  0  0  0  0  0  0  0  0  0  0  0
   55.3557   -5.3074   -5.5868 C   0  0  0  0  0  0  0  0  0  0  0  0
   55.9522   -4.6436   -4.6617 O   0  0  0  0  0  0  0  0  0  0  0  0
   54.9298   -3.5374   -6.1830 H   0  0  0  0  0  0  0  0  0  0  0  0
   55.6019   -6.8029   -5.4134 C   0  0  0  0  0  0  0  0  0  0  0  0
   54.9058   -7.1501   -4.1347 C   0  0  0  0  0  0  0  0  0  0  0  0
   53.6560   -6.7442   -3.8368 C   0  0  0  0  0  0  0  0  0  0  0  0
   53.0755   -7.1483   -2.6216 C   0  0  0  0  0  0  0  0  0  0  0  0
   53.7201   -7.9362   -1.7252 C   0  0  0  0  0  0  0  0  0  0  0  0
   55.0304   -8.3285   -2.1003 C   0  0  0  0  0  0  0  0  0  0  0  0
   55.6143   -7.9490   -3.2725 C   0  0  0  0  0  0  0  0  0  0  0  0
   53.2462   -8.3695   -0.4371 C   0  0  0  0  0  0  0  0  0  0  0  0
   52.1084   -9.0691   -0.5595 O   0  0  0  0  0  0  0  0  0  0  0  0
   53.6741   -8.2398    0.8657 N   0  0  0  0  0  0  0  0  0  0  0  0
   52.6894   -8.8506    1.8415 C   0  0  0  0  0  0  0  0  0  0  0  0
   52.1165   -7.6144    2.5218 C   0  0  0  0  0  0  0  0  0  0  0  0
   52.8827   -7.2558    3.7450 C   0  0  0  0  0  0  0  0  0  0  0  0
   54.2576   -6.9035    3.5683 N   0  0  0  0  0  0  0  0  0  0  0  0
   55.1329   -7.8266    4.2776 C   0  0  0  0  0  0  0  0  0  0  0  0
   54.6824   -6.5284    2.2766 C   0  0  0  0  0  0  0  0  0  0  0  0
   54.8943   -7.6647    1.2844 C   0  0  0  0  0  0  0  0  0  0  0  0
   52.4435   -4.8723   -7.7915 C   0  0  0  0  0  0  0  0  0  0  0  0
   51.3661   -4.1890   -7.0699 C   0  0  0  0  0  0  0  0  0  0  0  0
   50.9693   -4.7650   -5.8427 C   0  0  0  0  0  0  0  0  0  0  0  0
   49.9815   -4.1680   -5.0954 C   0  0  0  0  0  0  0  0  0  0  0  0
   49.3735   -3.0162   -5.5260 C   0  0  0  0  0  0  0  0  0  0  0  0
   49.7569   -2.4641   -6.7077 C   0  0  0  0  0  0  0  0  0  0  0  0
   50.7567   -3.0442   -7.4924 C   0  0  0  0  0  0  0  0  0  0  0  0
 10 11  1  0  0  0
 11  9  1  0  0  0
  9  8  1  0  0  0
  8  7  1  0  0  0
  7  6  1  0  0  0
  6  2  1  0  0  0
  2  3  1  0  0  0
  3  4  2  0  0  0
  3  1  1  0  0  0
  1 49  1  0  0  0
 49 50  1  0  0  0
 50 51  2  0  0  0
 51 52  1  0  0  0
 52 53  2  0  0  0
 53 54  1  0  0  0
 54 55  2  0  0  0
  1 28  1  0  0  0
 28 29  1  0  0  0
 29 30  2  0  0  0
 29 32  1  0  0  0
 32 33  1  0  0  0
 33 34  2  0  0  0
 34 35  1  0  0  0
 35 36  2  0  0  0
 36 37  1  0  0  0
 37 38  2  0  0  0
 36 39  1  0  0  0
 39 40  2  0  0  0
 39 41  1  0  0  0
 41 42  1  0  0  0
 42 43  1  0  0  0
 43 44  1  0  0  0
 44 45  1  0  0  0
 45 46  1  0  0  0
 45 47  1  0  0  0
 47 48  1  0  0  0
 11 14  1  0  0  0
 14 15  2  0  0  0
 14 16  1  0  0  0
 16 17  2  0  0  0
 17 18  1  0  0  0
 18 19  2  0  0  0
 19 20  1  0  0  0
 20 21  2  0  0  0
 20 22  1  0  0  0
 22 23  1  0  0  0
 22 24  2  0  0  0
 55 50  1  0  0  0
 38 33  1  0  0  0
 48 41  1  0  0  0
 21 16  1  0  0  0
 10 12  1  0  0  0
 10 13  1  0  0  0
  2  5  1  0  0  0
 28 31  1  0  0  0
 23 25  1  0  0  0
 23 26  1  0  0  0
 24 27  1  0  0  0
M  END
> <minimizedAffinity>
-9.43498

> <CNNscore>
0.3427021205

> <CNNaffinity>
7.0262413025

> <CNN_VS>
2.4079077244

> <CNNaffinity_variance>
0.0749964118

$$$$
[H]N=C(c1c([H])c([H])c([H])c(C(=O)[C@]([H])(N([H])[H])C([H])([H])C([H])([H])C([H])([H])C([H])([H])N([H])C(=O)[C@]([H])(N([H])C(=O)C([H])([H])c2c([H])c([H])c(C(=O)N3C([H])([H])C([H])([H])N(C([H])([H])[H])C([H])([H])C([H])([H])C3([H])[H])c([H])c2[H])C([H])([H])c2c([H])c([H])c([H])c([H])c2[H])c1[H])N([H])[H]


 55 58  0  0  0  0  0  0  0  0999 V2000
   53.6475   -4.4845   -7.4757 C   0  0  0  0  0  0  0  0  0  0  0  0
   55.3094   -4.4772   -9.3827 N   0  0  0  0  0  0  0  0  0  0  0  0
   54.1123   -4.0743   -8.8193 C   0  0  0  0  0  0  0  0  0  0  0  0
   53.3391   -3.2969   -9.4636 O   0  0  0  0  0  0  0  0  0  0  0  0
   55.9201   -5.1824   -8.8226 H   0  0  0  0  0  0  0  0  0  0  0  0
   55.8420   -4.0825  -10.6288 C   0  0  0  0  0  0  0  0  0  0  0  0
   57.3217   -4.2510  -10.7465 C   0  0  0  0  0  0  0  0  0  0  0  0
   57.7679   -3.8791  -12.1542 C   0  0  0  0  0  0  0  0  0  0  0  0
   56.5911   -3.7034  -13.0482 C   0  0  0  0  0  0  0  0  0  0  0  0
   55.9314   -5.7357  -14.3150 N   0  0  0  0  0  0  0  0  0  0  0  0
   56.7080   -4.5398  -14.3268 C   0  0  0  0  0  0  0  0  0  0  0  0
   55.6465   -5.9687  -15.3136 H   0  0  0  0  0  0  0  0  0  0  0  0
   56.3822   -6.5792  -13.9623 H   0  0  0  0  0  0  0  0  0  0  0  0
   56.4965   -3.6742  -15.5124 C   0  0  0  0  0  0  0  0  0  0  0  0
   55.4845   -2.9525  -15.5873 O   0  0  0  0  0  0  0  0  0  0  0  0
   57.4899   -3.6716  -16.5873 C   0  0  0  0  0  0  0  0  0  0  0  0
   58.5403   -2.7877  -16.5126 C   0  0  0  0  0  0  0  0  0  0  0  0
   59.5205   -2.7812  -17.4920 C   0  0  0  0  0  0  0  0  0  0  0  0
   59.4342   -3.6798  -18.5586 C   0  0  0  0  0  0  0  0  0  0  0  0
   58.3995   -4.5754  -18.6646 C   0  0  0  0  0  0  0  0  0  0  0  0
   57.4500   -4.5239  -17.6411 C   0  0  0  0  0  0  0  0  0  0  0  0
   58.2726   -5.5413  -19.7337 C   0  0  0  0  0  0  0  0  0  0  0  0
   57.3993   -6.6373  -19.5641 N   0  0  0  0  0  0  0  0  0  0  0  0
   58.9318   -5.4334  -20.8134 N   0  0  0  0  0  0  0  0  0  0  0  0
   57.7792   -7.5983  -19.6084 H   0  0  0  0  0  0  0  0  0  0  0  0
   56.3979   -6.4819  -19.3962 H   0  0  0  0  0  0  0  0  0  0  0  0
   59.5809   -4.6532  -20.9684 H   0  0  0  0  0  0  0  0  0  0  0  0
   54.4017   -5.1593   -6.5722 N   0  0  0  0  0  0  0  0  0  0  0  0
   55.1626   -5.8293   -5.6674 C   0  0  0  0  0  0  0  0  0  0  0  0
   56.2944   -5.4498   -5.1906 O   0  0  0  0  0  0  0  0  0  0  0  0
   55.3926   -4.2363   -6.7062 H   0  0  0  0  0  0  0  0  0  0  0  0
   54.7516   -7.1685   -5.0634 C   0  0  0  0  0  0  0  0  0  0  0  0
   54.4006   -6.8463   -3.6445 C   0  0  0  0  0  0  0  0  0  0  0  0
   53.4290   -5.9789   -3.2995 C   0  0  0  0  0  0  0  0  0  0  0  0
   53.1528   -5.7654   -1.9375 C   0  0  0  0  0  0  0  0  0  0  0  0
   53.8244   -6.3980   -0.9433 C   0  0  0  0  0  0  0  0  0  0  0  0
   54.8326   -7.2975   -1.3746 C   0  0  0  0  0  0  0  0  0  0  0  0
   55.1188   -7.5205   -2.6889 C   0  0  0  0  0  0  0  0  0  0  0  0
   53.6613   -6.2228    0.4759 C   0  0  0  0  0  0  0  0  0  0  0  0
   54.3446   -5.1510    0.9045 O   0  0  0  0  0  0  0  0  0  0  0  0
   52.9842   -6.8800    1.4792 N   0  0  0  0  0  0  0  0  0  0  0  0
   53.2631   -6.2680    2.8366 C   0  0  0  0  0  0  0  0  0  0  0  0
   54.1085   -7.3481    3.4984 C   0  0  0  0  0  0  0  0  0  0  0  0
   53.2708   -8.3081    4.2655 C   0  0  0  0  0  0  0  0  0  0  0  0
   52.3166   -9.0725    3.5232 N   0  0  0  0  0  0  0  0  0  0  0  0
   50.9578   -8.7909    3.9656 C   0  0  0  0  0  0  0  0  0  0  0  0
   52.4961   -9.1773    2.1280 C   0  0  0  0  0  0  0  0  0  0  0  0
   52.0904   -7.9600    1.3068 C   0  0  0  0  0  0  0  0  0  0  0  0
   52.2068   -4.9618   -7.6796 C   0  0  0  0  0  0  0  0  0  0  0  0
   51.2196   -4.3300   -6.7994 C   0  0  0  0  0  0  0  0  0  0  0  0
   50.6207   -3.1437   -7.2780 C   0  0  0  0  0  0  0  0  0  0  0  0
   49.6670   -2.5059   -6.5201 C   0  0  0  0  0  0  0  0  0  0  0  0
   49.2870   -3.0073   -5.3012 C   0  0  0  0  0  0  0  0  0  0  0  0
   49.8654   -4.1489   -4.8425 C   0  0  0  0  0  0  0  0  0  0  0  0
   50.8377   -4.8224   -5.5861 C   0  0  0  0  0  0  0  0  0  0  0  0
 10 11  1  0  0  0
 11  9  1  0  0  0
  9  8  1  0  0  0
  8  7  1  0  0  0
  7  6  1  0  0  0
  6  2  1  0  0  0
  2  3  1  0  0  0
  3  4  2  0  0  0
  3  1  1  0  0  0
  1 49  1  0  0  0
 49 50  1  0  0  0
 50 51  2  0  0  0
 51 52  1  0  0  0
 52 53  2  0  0  0
 53 54  1  0  0  0
 54 55  2  0  0  0
  1 28  1  0  0  0
 28 29  1  0  0  0
 29 30  2  0  0  0
 29 32  1  0  0  0
 32 33  1  0  0  0
 33 34  2  0  0  0
 34 35  1  0  0  0
 35 36  2  0  0  0
 36 37  1  0  0  0
 37 38  2  0  0  0
 36 39  1  0  0  0
 39 40  2  0  0  0
 39 41  1  0  0  0
 41 42  1  0  0  0
 42 43  1  0  0  0
 43 44  1  0  0  0
 44 45  1  0  0  0
 45 46  1  0  0  0
 45 47  1  0  0  0
 47 48  1  0  0  0
 11 14  1  0  0  0
 14 15  2  0  0  0
 14 16  1  0  0  0
 16 17  2  0  0  0
 17 18  1  0  0  0
 18 19  2  0  0  0
 19 20  1  0  0  0
 20 21  2  0  0  0
 20 22  1  0  0  0
 22 23  1  0  0  0
 22 24  2  0  0  0
 55 50  1  0  0  0
 38 33  1  0  0  0
 48 41  1  0  0  0
 21 16  1  0  0  0
 10 12  1  0  0  0
 10 13  1  0  0  0
  2  5  1  0  0  0
 28 31  1  0  0  0
 23 25  1  0  0  0
 23 26  1  0  0  0
 24 27  1  0  0  0
M  END
> <minimizedAffinity>
-9.16867

> <CNNscore>
0.2468285859

> <CNNaffinity>
6.9879484177

> <CNN_VS>
1.7248253822

> <CNNaffinity_variance>
0.0258607473

$$$$
[H]N=C(c1c([H])c([H])c([H])c(C(=O)[C@]([H])(N([H])[H])C([H])([H])C([H])([H])C([H])([H])C([H])([H])N([H])C(=O)[C@]([H])(N([H])C(=O)C([H])([H])c2c([H])c([H])c(C(=O)N3C([H])([H])C([H])([H])N(C([H])([H])[H])C([H])([H])C([H])([H])C3([H])[H])c([H])c2[H])C([H])([H])c2c([H])c([H])c([H])c([H])c2[H])c1[H])N([H])[H]


 55 58  0  0  0  0  0  0  0  0999 V2000
   54.1577   -4.6692   -7.5588 C   0  0  0  0  0  0  0  0  0  0  0  0
   51.7545   -3.9666   -7.1995 N   0  0  0  0  0  0  0  0  0  0  0  0
   52.8754   -4.0787   -8.0018 C   0  0  0  0  0  0  0  0  0  0  0  0
   52.8375   -3.6657   -9.2040 O   0  0  0  0  0  0  0  0  0  0  0  0
   51.8410   -4.2843   -6.1623 H   0  0  0  0  0  0  0  0  0  0  0  0
   50.4861   -3.4697   -7.5692 C   0  0  0  0  0  0  0  0  0  0  0  0
   50.0445   -2.2720   -6.7934 C   0  0  0  0  0  0  0  0  0  0  0  0
   49.2157   -2.7161   -5.5956 C   0  0  0  0  0  0  0  0  0  0  0  0
   49.3211   -4.1879   -5.4017 C   0  0  0  0  0  0  0  0  0  0  0  0
   48.7672   -4.7768   -3.0530 N   0  0  0  0  0  0  0  0  0  0  0  0
   49.8123   -4.5510   -3.9964 C   0  0  0  0  0  0  0  0  0  0  0  0
   49.1054   -5.4801   -2.3294 H   0  0  0  0  0  0  0  0  0  0  0  0
   48.4457   -3.9733   -2.5143 H   0  0  0  0  0  0  0  0  0  0  0  0
   50.8164   -5.6392   -4.0826 C   0  0  0  0  0  0  0  0  0  0  0  0
   51.0235   -6.2145   -5.1674 O   0  0  0  0  0  0  0  0  0  0  0  0
   51.5641   -6.0243   -2.8849 C   0  0  0  0  0  0  0  0  0  0  0  0
   52.1515   -5.0380   -2.1284 C   0  0  0  0  0  0  0  0  0  0  0  0
   52.8360   -5.3605   -0.9674 C   0  0  0  0  0  0  0  0  0  0  0  0
   52.9262   -6.6971   -0.5700 C   0  0  0  0  0  0  0  0  0  0  0  0
   52.3520   -7.7068   -1.3012 C   0  0  0  0  0  0  0  0  0  0  0  0
   51.6789   -7.3062   -2.4580 C   0  0  0  0  0  0  0  0  0  0  0  0
   52.3953   -9.1027   -0.9250 C   0  0  0  0  0  0  0  0  0  0  0  0
   53.0447   -9.4673    0.2741 N   0  0  0  0  0  0  0  0  0  0  0  0
   51.8736  -10.0062   -1.6486 N   0  0  0  0  0  0  0  0  0  0  0  0
   53.8487  -10.1170    0.2366 H   0  0  0  0  0  0  0  0  0  0  0  0
   52.7237   -9.0898    1.1739 H   0  0  0  0  0  0  0  0  0  0  0  0
   51.3992   -9.7783   -2.5301 H   0  0  0  0  0  0  0  0  0  0  0  0
   54.3438   -5.3099   -6.3775 N   0  0  0  0  0  0  0  0  0  0  0  0
   54.5268   -5.9583   -5.1974 C   0  0  0  0  0  0  0  0  0  0  0  0
   54.2047   -7.1749   -4.9360 O   0  0  0  0  0  0  0  0  0  0  0  0
   53.6685   -6.3907   -6.8545 H   0  0  0  0  0  0  0  0  0  0  0  0
   55.1769   -5.3057   -3.9813 C   0  0  0  0  0  0  0  0  0  0  0  0
   56.1872   -6.3071   -3.5157 C   0  0  0  0  0  0  0  0  0  0  0  0
   57.2395   -6.7000   -4.2598 C   0  0  0  0  0  0  0  0  0  0  0  0
   58.1523   -7.6242   -3.7219 C   0  0  0  0  0  0  0  0  0  0  0  0
   58.0233   -8.1448   -2.4761 C   0  0  0  0  0  0  0  0  0  0  0  0
   56.8958   -7.6891   -1.7463 C   0  0  0  0  0  0  0  0  0  0  0  0
   55.9972   -6.7941   -2.2467 C   0  0  0  0  0  0  0  0  0  0  0  0
   58.8637   -9.1276   -1.8440 C   0  0  0  0  0  0  0  0  0  0  0  0
   59.0515  -10.1825   -2.6509 O   0  0  0  0  0  0  0  0  0  0  0  0
   59.5085   -9.2409   -0.6323 N   0  0  0  0  0  0  0  0  0  0  0  0
   60.1963  -10.5829   -0.4877 C   0  0  0  0  0  0  0  0  0  0  0  0
   59.3351  -11.2630    0.5683 C   0  0  0  0  0  0  0  0  0  0  0  0
   59.8510  -11.0147    1.9410 C   0  0  0  0  0  0  0  0  0  0  0  0
   59.8754   -9.6564    2.3882 N   0  0  0  0  0  0  0  0  0  0  0  0
   61.2349   -9.2220    2.6782 C   0  0  0  0  0  0  0  0  0  0  0  0
   59.0671   -8.7223    1.7072 C   0  0  0  0  0  0  0  0  0  0  0  0
   59.5903   -8.2394    0.3604 C   0  0  0  0  0  0  0  0  0  0  0  0
   55.2298   -3.6620   -7.9845 C   0  0  0  0  0  0  0  0  0  0  0  0
   56.3466   -4.2359   -8.7409 C   0  0  0  0  0  0  0  0  0  0  0  0
   57.3562   -4.8708   -7.9842 C   0  0  0  0  0  0  0  0  0  0  0  0
   58.4241   -5.4548   -8.6238 C   0  0  0  0  0  0  0  0  0  0  0  0
   58.5235   -5.4300   -9.9917 C   0  0  0  0  0  0  0  0  0  0  0  0
   57.5507   -4.8177  -10.7176 C   0  0  0  0  0  0  0  0  0  0  0  0
   56.4522   -4.2141  -10.1006 C   0  0  0  0  0  0  0  0  0  0  0  0
 10 11  1  0  0  0
 11  9  1  0  0  0
  9  8  1  0  0  0
  8  7  1  0  0  0
  7  6  1  0  0  0
  6  2  1  0  0  0
  2  3  1  0  0  0
  3  4  2  0  0  0
  3  1  1  0  0  0
  1 49  1  0  0  0
 49 50  1  0  0  0
 50 51  2  0  0  0
 51 52  1  0  0  0
 52 53  2  0  0  0
 53 54  1  0  0  0
 54 55  2  0  0  0
  1 28  1  0  0  0
 28 29  1  0  0  0
 29 30  2  0  0  0
 29 32  1  0  0  0
 32 33  1  0  0  0
 33 34  2  0  0  0
 34 35  1  0  0  0
 35 36  2  0  0  0
 36 37  1  0  0  0
 37 38  2  0  0  0
 36 39  1  0  0  0
 39 40  2  0  0  0
 39 41  1  0  0  0
 41 42  1  0  0  0
 42 43  1  0  0  0
 43 44  1  0  0  0
 44 45  1  0  0  0
 45 46  1  0  0  0
 45 47  1  0  0  0
 47 48  1  0  0  0
 11 14  1  0  0  0
 14 15  2  0  0  0
 14 16  1  0  0  0
 16 17  2  0  0  0
 17 18  1  0  0  0
 18 19  2  0  0  0
 19 20  1  0  0  0
 20 21  2  0  0  0
 20 22  1  0  0  0
 22 23  1  0  0  0
 22 24  2  0  0  0
 55 50  1  0  0  0
 38 33  1  0  0  0
 48 41  1  0  0  0
 21 16  1  0  0  0
 10 12  1  0  0  0
 10 13  1  0  0  0
  2  5  1  0  0  0
 28 31  1  0  0  0
 23 25  1  0  0  0
 23 26  1  0  0  0
 24 27  1  0  0  0
M  END
> <minimizedAffinity>
-9.61857

> <CNNscore>
0.1988691390

> <CNNaffinity>
7.1289153099

> <CNN_VS>
1.4177212715

> <CNNaffinity_variance>
0.6009336710

$$$$
[H]N=C(c1c([H])c([H])c([H])c(C(=O)[C@]([H])(N([H])[H])C([H])([H])C([H])([H])C([H])([H])C([H])([H])N([H])C(=O)[C@]([H])(N([H])C(=O)C([H])([H])c2c([H])c([H])c(C(=O)N3C([H])([H])C([H])([H])N(C([H])([H])[H])C([H])([H])C([H])([H])C3([H])[H])c([H])c2[H])C([H])([H])c2c([H])c([H])c([H])c([H])c2[H])c1[H])N([H])[H]


 55 58  0  0  0  0  0  0  0  0999 V2000
   54.4173   -4.9372   -7.0419 C   0  0  0  0  0  0  0  0  0  0  0  0
   55.5083   -4.5492   -9.2908 N   0  0  0  0  0  0  0  0  0  0  0  0
   55.5871   -4.7139   -7.9198 C   0  0  0  0  0  0  0  0  0  0  0  0
   56.7200   -4.6846   -7.3426 O   0  0  0  0  0  0  0  0  0  0  0  0
   54.5182   -4.5296   -9.7418 H   0  0  0  0  0  0  0  0  0  0  0  0
   56.5807   -4.3904  -10.1946 C   0  0  0  0  0  0  0  0  0  0  0  0
   56.1831   -3.8627  -11.5344 C   0  0  0  0  0  0  0  0  0  0  0  0
   57.0294   -4.5221  -12.6151 C   0  0  0  0  0  0  0  0  0  0  0  0
   56.4710   -4.2376  -13.9650 C   0  0  0  0  0  0  0  0  0  0  0  0
   58.7885   -3.4400  -14.3685 N   0  0  0  0  0  0  0  0  0  0  0  0
   57.4396   -3.4247  -14.8305 C   0  0  0  0  0  0  0  0  0  0  0  0
   59.4381   -3.3352  -15.2051 H   0  0  0  0  0  0  0  0  0  0  0  0
   59.0664   -2.7034  -13.7208 H   0  0  0  0  0  0  0  0  0  0  0  0
   57.2677   -3.7945  -16.2565 C   0  0  0  0  0  0  0  0  0  0  0  0
   57.1380   -4.9896  -16.5814 O   0  0  0  0  0  0  0  0  0  0  0  0
   57.2455   -2.7431  -17.2744 C   0  0  0  0  0  0  0  0  0  0  0  0
   56.0418   -2.4027  -17.8449 C   0  0  0  0  0  0  0  0  0  0  0  0
   55.9751   -1.3867  -18.7848 C   0  0  0  0  0  0  0  0  0  0  0  0
   57.1414   -0.7094  -19.1505 C   0  0  0  0  0  0  0  0  0  0  0  0
   58.3595   -1.0233  -18.6014 C   0  0  0  0  0  0  0  0  0  0  0  0
   58.3491   -2.0570  -17.6615 C   0  0  0  0  0  0  0  0  0  0  0  0
   59.5928   -0.3411  -18.9263 C   0  0  0  0  0  0  0  0  0  0  0  0
   60.6346   -1.0687  -19.5410 N   0  0  0  0  0  0  0  0  0  0  0  0
   59.7645    0.8895  -18.6651 N   0  0  0  0  0  0  0  0  0  0  0  0
   61.5508   -1.1392  -19.0661 H   0  0  0  0  0  0  0  0  0  0  0  0
   60.4837   -1.5251  -20.4487 H   0  0  0  0  0  0  0  0  0  0  0  0
   59.0312    1.4479  -18.2128 H   0  0  0  0  0  0  0  0  0  0  0  0
   54.3649   -5.8584   -6.0473 N   0  0  0  0  0  0  0  0  0  0  0  0
   54.3186   -6.7851   -5.0545 C   0  0  0  0  0  0  0  0  0  0  0  0
   55.0814   -7.8125   -4.9320 O   0  0  0  0  0  0  0  0  0  0  0  0
   55.3122   -6.6011   -6.6820 H   0  0  0  0  0  0  0  0  0  0  0  0
   53.3235   -6.7191   -3.9001 C   0  0  0  0  0  0  0  0  0  0  0  0
   54.1539   -6.3461   -2.7121 C   0  0  0  0  0  0  0  0  0  0  0  0
   55.0071   -5.3033   -2.7016 C   0  0  0  0  0  0  0  0  0  0  0  0
   55.7214   -5.0140   -1.5256 C   0  0  0  0  0  0  0  0  0  0  0  0
   55.5911   -5.7420   -0.3886 C   0  0  0  0  0  0  0  0  0  0  0  0
   54.6773   -6.8238   -0.4669 C   0  0  0  0  0  0  0  0  0  0  0  0
   53.9739   -7.1239   -1.5958 C   0  0  0  0  0  0  0  0  0  0  0  0
   56.3021   -5.5690    0.8508 C   0  0  0  0  0  0  0  0  0  0  0  0
   55.4471   -5.3901    1.8688 O   0  0  0  0  0  0  0  0  0  0  0  0
   57.6250   -5.5440    1.2335 N   0  0  0  0  0  0  0  0  0  0  0  0
   57.7754   -5.2270    2.7072 C   0  0  0  0  0  0  0  0  0  0  0  0
   58.3665   -3.8241    2.6661 C   0  0  0  0  0  0  0  0  0  0  0  0
   59.8535   -3.8543    2.6703 C   0  0  0  0  0  0  0  0  0  0  0  0
   60.4917   -4.4925    1.5608 N   0  0  0  0  0  0  0  0  0  0  0  0
   61.2791   -5.6385    1.9942 C   0  0  0  0  0  0  0  0  0  0  0  0
   59.7380   -4.6787    0.3831 C   0  0  0  0  0  0  0  0  0  0  0  0
   58.7336   -5.8238    0.4042 C   0  0  0  0  0  0  0  0  0  0  0  0
   53.1996   -4.8345   -7.9647 C   0  0  0  0  0  0  0  0  0  0  0  0
   52.0337   -4.1721   -7.3726 C   0  0  0  0  0  0  0  0  0  0  0  0
   51.6571   -2.9363   -7.9437 C   0  0  0  0  0  0  0  0  0  0  0  0
   50.5587   -2.2661   -7.4587 C   0  0  0  0  0  0  0  0  0  0  0  0
   49.8202   -2.7824   -6.4245 C   0  0  0  0  0  0  0  0  0  0  0  0
   50.1852   -3.9717   -5.8762 C   0  0  0  0  0  0  0  0  0  0  0  0
   51.2954   -4.6792   -6.3438 C   0  0  0  0  0  0  0  0  0  0  0  0
 10 11  1  0  0  0
 11  9  1  0  0  0
  9  8  1  0  0  0
  8  7  1  0  0  0
  7  6  1  0  0  0
  6  2  1  0  0  0
  2  3  1  0  0  0
  3  4  2  0  0  0
  3  1  1  0  0  0
  1 49  1  0  0  0
 49 50  1  0  0  0
 50 51  2  0  0  0
 51 52  1  0  0  0
 52 53  2  0  0  0
 53 54  1  0  0  0
 54 55  2  0  0  0
  1 28  1  0  0  0
 28 29  1  0  0  0
 29 30  2  0  0  0
 29 32  1  0  0  0
 32 33  1  0  0  0
 33 34  2  0  0  0
 34 35  1  0  0  0
 35 36  2  0  0  0
 36 37  1  0  0  0
 37 38  2  0  0  0
 36 39  1  0  0  0
 39 40  2  0  0  0
 39 41  1  0  0  0
 41 42  1  0  0  0
 42 43  1  0  0  0
 43 44  1  0  0  0
 44 45  1  0  0  0
 45 46  1  0  0  0
 45 47  1  0  0  0
 47 48  1  0  0  0
 11 14  1  0  0  0
 14 15  2  0  0  0
 14 16  1  0  0  0
 16 17  2  0  0  0
 17 18  1  0  0  0
 18 19  2  0  0  0
 19 20  1  0  0  0
 20 21  2  0  0  0
 20 22  1  0  0  0
 22 23  1  0  0  0
 22 24  2  0  0  0
 55 50  1  0  0  0
 38 33  1  0  0  0
 48 41  1  0  0  0
 21 16  1  0  0  0
 10 12  1  0  0  0
 10 13  1  0  0  0
  2  5  1  0  0  0
 28 31  1  0  0  0
 23 25  1  0  0  0
 23 26  1  0  0  0
 24 27  1  0  0  0
M  END
> <minimizedAffinity>
-9.80649

> <CNNscore>
0.1602316499

> <CNNaffinity>
6.1540236473

> <CNN_VS>
0.9860693812

> <CNNaffinity_variance>
0.2509582043

$$$$
[H]N=C(c1c([H])c([H])c([H])c(C(=O)[C@]([H])(N([H])[H])C([H])([H])C([H])([H])C([H])([H])C([H])([H])N([H])C(=O)[C@]([H])(N([H])C(=O)C([H])([H])c2c([H])c([H])c(C(=O)N3C([H])([H])C([H])([H])N(C([H])([H])[H])C([H])([H])C([H])([H])C3([H])[H])c([H])c2[H])C([H])([H])c2c([H])c([H])c([H])c([H])c2[H])c1[H])N([H])[H]


 55 58  0  0  0  0  0  0  0  0999 V2000
   53.3001   -4.6641   -7.0287 C   0  0  0  0  0  0  0  0  0  0  0  0
   55.1027   -4.6311   -8.8029 N   0  0  0  0  0  0  0  0  0  0  0  0
   53.9741   -4.0902   -8.2142 C   0  0  0  0  0  0  0  0  0  0  0  0
   53.4587   -3.0292   -8.6896 O   0  0  0  0  0  0  0  0  0  0  0  0
   55.4847   -5.5667   -8.3993 H   0  0  0  0  0  0  0  0  0  0  0  0
   55.8296   -4.1094   -9.8946 C   0  0  0  0  0  0  0  0  0  0  0  0
   57.1482   -4.7714  -10.1284 C   0  0  0  0  0  0  0  0  0  0  0  0
   57.6818   -4.3774  -11.4991 C   0  0  0  0  0  0  0  0  0  0  0  0
   56.5638   -4.1937  -12.4642 C   0  0  0  0  0  0  0  0  0  0  0  0
   58.4680   -3.5270  -13.9133 N   0  0  0  0  0  0  0  0  0  0  0  0
   57.0552   -3.7013  -13.8295 C   0  0  0  0  0  0  0  0  0  0  0  0
   58.7750   -3.6978  -14.9179 H   0  0  0  0  0  0  0  0  0  0  0  0
   58.8380   -2.6079  -13.6736 H   0  0  0  0  0  0  0  0  0  0  0  0
   56.4682   -4.5378  -14.9044 C   0  0  0  0  0  0  0  0  0  0  0  0
   56.0651   -5.6885  -14.6516 O   0  0  0  0  0  0  0  0  0  0  0  0
   56.3617   -3.9962  -16.2600 C   0  0  0  0  0  0  0  0  0  0  0  0
   57.2221   -4.4619  -17.2258 C   0  0  0  0  0  0  0  0  0  0  0  0
   57.1273   -4.0006  -18.5291 C   0  0  0  0  0  0  0  0  0  0  0  0
   56.1502   -3.0567  -18.8559 C   0  0  0  0  0  0  0  0  0  0  0  0
   55.2752   -2.5702  -17.9169 C   0  0  0  0  0  0  0  0  0  0  0  0
   55.4305   -3.0810  -16.6259 C   0  0  0  0  0  0  0  0  0  0  0  0
   54.2318   -1.6107  -18.2045 C   0  0  0  0  0  0  0  0  0  0  0  0
   53.8743   -1.3727  -19.5492 N   0  0  0  0  0  0  0  0  0  0  0  0
   53.6378   -0.9727  -17.2814 N   0  0  0  0  0  0  0  0  0  0  0  0
   53.9697   -0.4184  -19.9365 H   0  0  0  0  0  0  0  0  0  0  0  0
   53.5255   -2.1393  -20.1371 H   0  0  0  0  0  0  0  0  0  0  0  0
   53.8765   -1.1156  -16.2931 H   0  0  0  0  0  0  0  0  0  0  0  0
   53.8157   -5.6485   -6.2503 N   0  0  0  0  0  0  0  0  0  0  0  0
   54.3367   -6.6368   -5.4769 C   0  0  0  0  0  0  0  0  0  0  0  0
   55.2167   -7.5030   -5.8341 O   0  0  0  0  0  0  0  0  0  0  0  0
   54.4920   -6.1448   -7.3218 H   0  0  0  0  0  0  0  0  0  0  0  0
   53.9398   -6.8498   -4.0194 C   0  0  0  0  0  0  0  0  0  0  0  0
   55.0836   -6.2873   -3.2349 C   0  0  0  0  0  0  0  0  0  0  0  0
   55.5015   -5.0111   -3.3443 C   0  0  0  0  0  0  0  0  0  0  0  0
   56.5667   -4.5673   -2.5410 C   0  0  0  0  0  0  0  0  0  0  0  0
   57.2006   -5.3710   -1.6511 C   0  0  0  0  0  0  0  0  0  0  0  0
   56.7113   -6.7006   -1.5849 C   0  0  0  0  0  0  0  0  0  0  0  0
   55.6805   -7.1538   -2.3537 C   0  0  0  0  0  0  0  0  0  0  0  0
   58.3262   -5.0412   -0.8170 C   0  0  0  0  0  0  0  0  0  0  0  0
   59.4604   -5.0258   -1.5329 O   0  0  0  0  0  0  0  0  0  0  0  0
   58.5128   -4.7431    0.5147 N   0  0  0  0  0  0  0  0  0  0  0  0
   59.9797   -4.5620    0.8473 C   0  0  0  0  0  0  0  0  0  0  0  0
   60.2647   -5.8006    1.6864 C   0  0  0  0  0  0  0  0  0  0  0  0
   60.0542   -5.5426    3.1358 C   0  0  0  0  0  0  0  0  0  0  0  0
   58.7304   -5.1884    3.5454 N   0  0  0  0  0  0  0  0  0  0  0  0
   58.7005   -3.8579    4.1370 C   0  0  0  0  0  0  0  0  0  0  0  0
   57.6653   -5.4935    2.6723 C   0  0  0  0  0  0  0  0  0  0  0  0
   57.4930   -4.5665    1.4758 C   0  0  0  0  0  0  0  0  0  0  0  0
   51.8266   -4.7872   -7.4271 C   0  0  0  0  0  0  0  0  0  0  0  0
   50.8765   -4.2806   -6.4325 C   0  0  0  0  0  0  0  0  0  0  0  0
   50.1494   -3.1242   -6.7916 C   0  0  0  0  0  0  0  0  0  0  0  0
   49.2213   -2.6029   -5.9212 C   0  0  0  0  0  0  0  0  0  0  0  0
   48.9901   -3.1923   -4.7044 C   0  0  0  0  0  0  0  0  0  0  0  0
   49.6917   -4.3050   -4.3609 C   0  0  0  0  0  0  0  0  0  0  0  0
   50.6422   -4.8610   -5.2206 C   0  0  0  0  0  0  0  0  0  0  0  0
 10 11  1  0  0  0
 11  9  1  0  0  0
  9  8  1  0  0  0
  8  7  1  0  0  0
  7  6  1  0  0  0
  6  2  1  0  0  0
  2  3  1  0  0  0
  3  4  2  0  0  0
  3  1  1  0  0  0
  1 49  1  0  0  0
 49 50  1  0  0  0
 50 51  2  0  0  0
 51 52  1  0  0  0
 52 53  2  0  0  0
 53 54  1  0  0  0
 54 55  2  0  0  0
  1 28  1  0  0  0
 28 29  1  0  0  0
 29 30  2  0  0  0
 29 32  1  0  0  0
 32 33  1  0  0  0
 33 34  2  0  0  0
 34 35  1  0  0  0
 35 36  2  0  0  0
 36 37  1  0  0  0
 37 38  2  0  0  0
 36 39  1  0  0  0
 39 40  2  0  0  0
 39 41  1  0  0  0
 41 42  1  0  0  0
 42 43  1  0  0  0
 43 44  1  0  0  0
 44 45  1  0  0  0
 45 46  1  0  0  0
 45 47  1  0  0  0
 47 48  1  0  0  0
 11 14  1  0  0  0
 14 15  2  0  0  0
 14 16  1  0  0  0
 16 17  2  0  0  0
 17 18  1  0  0  0
 18 19  2  0  0  0
 19 20  1  0  0  0
 20 21  2  0  0  0
 20 22  1  0  0  0
 22 23  1  0  0  0
 22 24  2  0  0  0
 55 50  1  0  0  0
 38 33  1  0  0  0
 48 41  1  0  0  0
 21 16  1  0  0  0
 10 12  1  0  0  0
 10 13  1  0  0  0
  2  5  1  0  0  0
 28 31  1  0  0  0
 23 25  1  0  0  0
 23 26  1  0  0  0
 24 27  1  0  0  0
M  END
> <minimizedAffinity>
-10.25801

> <CNNscore>
0.1577965617

> <CNNaffinity>
6.4807672501

> <CNN_VS>
1.0226427317

> <CNNaffinity_variance>
0.3653404415

$$$$
[H]N=C(c1c([H])c([H])c([H])c(C(=O)[C@]([H])(N([H])[H])C([H])([H])C([H])([H])C([H])([H])C([H])([H])N([H])C(=O)[C@]([H])(N([H])C(=O)C([H])([H])c2c([H])c([H])c(C(=O)N3C([H])([H])C([H])([H])N(C([H])([H])[H])C([H])([H])C([H])([H])C3([H])[H])c([H])c2[H])C([H])([H])c2c([H])c([H])c([H])c([H])c2[H])c1[H])N([H])[H]


 55 58  0  0  0  0  0  0  0  0999 V2000
   53.8390   -5.6352   -6.6129 C   0  0  0  0  0  0  0  0  0  0  0  0
   53.2421   -6.2081   -4.2225 N   0  0  0  0  0  0  0  0  0  0  0  0
   54.1117   -5.6798   -5.1593 C   0  0  0  0  0  0  0  0  0  0  0  0
   55.2222   -5.1860   -4.7849 O   0  0  0  0  0  0  0  0  0  0  0  0
   52.3249   -6.6671   -4.5859 H   0  0  0  0  0  0  0  0  0  0  0  0
   53.4091   -6.2327   -2.8211 C   0  0  0  0  0  0  0  0  0  0  0  0
   54.4387   -5.2801   -2.3074 C   0  0  0  0  0  0  0  0  0  0  0  0
   54.5475   -5.4124   -0.7942 C   0  0  0  0  0  0  0  0  0  0  0  0
   53.3049   -6.0052   -0.2290 C   0  0  0  0  0  0  0  0  0  0  0  0
   52.9533   -5.9593    2.2295 N   0  0  0  0  0  0  0  0  0  0  0  0
   53.5461   -6.6573    1.1366 C   0  0  0  0  0  0  0  0  0  0  0  0
   52.7080   -6.6611    2.9911 H   0  0  0  0  0  0  0  0  0  0  0  0
   53.5221   -5.2511    2.6922 H   0  0  0  0  0  0  0  0  0  0  0  0
   53.2129   -8.1009    1.0679 C   0  0  0  0  0  0  0  0  0  0  0  0
   54.0514   -8.9535    1.4154 O   0  0  0  0  0  0  0  0  0  0  0  0
   51.8901   -8.5119    0.5953 C   0  0  0  0  0  0  0  0  0  0  0  0
   51.7883   -9.1199   -0.6335 C   0  0  0  0  0  0  0  0  0  0  0  0
   50.5581   -9.5567   -1.0986 C   0  0  0  0  0  0  0  0  0  0  0  0
   49.4194   -9.3743   -0.3095 C   0  0  0  0  0  0  0  0  0  0  0  0
   49.4847   -8.7712    0.9218 C   0  0  0  0  0  0  0  0  0  0  0  0
   50.7571   -8.3577    1.3241 C   0  0  0  0  0  0  0  0  0  0  0  0
   48.3433   -8.5772    1.7886 C   0  0  0  0  0  0  0  0  0  0  0  0
   47.0475   -8.7850    1.2685 N   0  0  0  0  0  0  0  0  0  0  0  0
   48.4768   -8.2170    2.9988 N   0  0  0  0  0  0  0  0  0  0  0  0
   46.3700   -8.0034    1.2715 H   0  0  0  0  0  0  0  0  0  0  0  0
   46.7811   -9.7017    0.8893 H   0  0  0  0  0  0  0  0  0  0  0  0
   49.4033   -8.0506    3.4084 H   0  0  0  0  0  0  0  0  0  0  0  0
   54.3758   -4.7312   -7.4703 N   0  0  0  0  0  0  0  0  0  0  0  0
   54.9135   -3.8202   -8.3232 C   0  0  0  0  0  0  0  0  0  0  0  0
   55.2024   -2.5973   -8.0523 O   0  0  0  0  0  0  0  0  0  0  0  0
   54.2404   -3.7561   -6.5308 H   0  0  0  0  0  0  0  0  0  0  0  0
   55.2718   -4.1448   -9.7701 C   0  0  0  0  0  0  0  0  0  0  0  0
   56.6703   -4.6736   -9.6987 C   0  0  0  0  0  0  0  0  0  0  0  0
   57.2329   -5.1317   -8.5634 C   0  0  0  0  0  0  0  0  0  0  0  0
   58.5441   -5.6377   -8.6040 C   0  0  0  0  0  0  0  0  0  0  0  0
   59.2777   -5.6878   -9.7437 C   0  0  0  0  0  0  0  0  0  0  0  0
   58.6266   -5.1913  -10.9018 C   0  0  0  0  0  0  0  0  0  0  0  0
   57.3566   -4.6956  -10.8870 C   0  0  0  0  0  0  0  0  0  0  0  0
   60.6369   -6.1367   -9.8938 C   0  0  0  0  0  0  0  0  0  0  0  0
   61.0742   -5.9204  -11.1433 O   0  0  0  0  0  0  0  0  0  0  0  0
   61.5773   -6.7238   -9.0764 N   0  0  0  0  0  0  0  0  0  0  0  0
   62.8457   -7.0594   -9.8339 C   0  0  0  0  0  0  0  0  0  0  0  0
   62.7885   -8.5805   -9.8801 C   0  0  0  0  0  0  0  0  0  0  0  0
   63.4922   -9.1921   -8.7214 C   0  0  0  0  0  0  0  0  0  0  0  0
   62.9727   -8.9016   -7.4208 N   0  0  0  0  0  0  0  0  0  0  0  0
   63.9554   -8.2007   -6.6058 C   0  0  0  0  0  0  0  0  0  0  0  0
   61.6492   -8.4218   -7.3305 C   0  0  0  0  0  0  0  0  0  0  0  0
   61.4418   -6.9560   -7.6898 C   0  0  0  0  0  0  0  0  0  0  0  0
   52.3409   -5.9226   -6.7475 C   0  0  0  0  0  0  0  0  0  0  0  0
   51.4761   -4.7450   -6.6298 C   0  0  0  0  0  0  0  0  0  0  0  0
   51.6559   -3.7351   -7.6008 C   0  0  0  0  0  0  0  0  0  0  0  0
   50.8652   -2.6105   -7.5715 C   0  0  0  0  0  0  0  0  0  0  0  0
   49.9002   -2.4547   -6.6092 C   0  0  0  0  0  0  0  0  0  0  0  0
   49.7296   -3.4279   -5.6754 C   0  0  0  0  0  0  0  0  0  0  0  0
   50.5153   -4.5830   -5.6752 C   0  0  0  0  0  0  0  0  0  0  0  0
 10 11  1  0  0  0
 11  9  1  0  0  0
  9  8  1  0  0  0
  8  7  1  0  0  0
  7  6  1  0  0  0
  6  2  1  0  0  0
  2  3  1  0  0  0
  3  4  2  0  0  0
  3  1  1  0  0  0
  1 49  1  0  0  0
 49 50  1  0  0  0
 50 51  2  0  0  0
 51 52  1  0  0  0
 52 53  2  0  0  0
 53 54  1  0  0  0
 54 55  2  0  0  0
  1 28  1  0  0  0
 28 29  1  0  0  0
 29 30  2  0  0  0
 29 32  1  0  0  0
 32 33  1  0  0  0
 33 34  2  0  0  0
 34 35  1  0  0  0
 35 36  2  0  0  0
 36 37  1  0  0  0
 37 38  2  0  0  0
 36 39  1  0  0  0
 39 40  2  0  0  0
 39 41  1  0  0  0
 41 42  1  0  0  0
 42 43  1  0  0  0
 43 44  1  0  0  0
 44 45  1  0  0  0
 45 46  1  0  0  0
 45 47  1  0  0  0
 47 48  1  0  0  0
 11 14  1  0  0  0
 14 15  2  0  0  0
 14 16  1  0  0  0
 16 17  2  0  0  0
 17 18  1  0  0  0
 18 19  2  0  0  0
 19 20  1  0  0  0
 20 21  2  0  0  0
 20 22  1  0  0  0
 22 23  1  0  0  0
 22 24  2  0  0  0
 55 50  1  0  0  0
 38 33  1  0  0  0
 48 41  1  0  0  0
 21 16  1  0  0  0
 10 12  1  0  0  0
 10 13  1  0  0  0
  2  5  1  0  0  0
 28 31  1  0  0  0
 23 25  1  0  0  0
 23 26  1  0  0  0
 24 27  1  0  0  0
M  END
> <minimizedAffinity>
-10.20966

> <CNNscore>
0.1571842581

> <CNNaffinity>
6.5334157944

> <CNN_VS>
1.0269501209

> <CNNaffinity_variance>
0.7615154982

$$$$
[H]N=C(c1c([H])c([H])c([H])c(C(=O)[C@]([H])(N([H])[H])C([H])([H])C([H])([H])C([H])([H])C([H])([H])N([H])C(=O)[C@]([H])(N([H])C(=O)C([H])([H])c2c([H])c([H])c(C(=O)N3C([H])([H])C([H])([H])N(C([H])([H])[H])C([H])([H])C([H])([H])C3([H])[H])c([H])c2[H])C([H])([H])c2c([H])c([H])c([H])c([H])c2[H])c1[H])N([H])[H]


 55 58  0  0  0  0  0  0  0  0999 V2000
   53.7340   -4.3254   -7.9592 C   0  0  0  0  0  0  0  0  0  0  0  0
   55.6919   -4.1375   -9.5497 N   0  0  0  0  0  0  0  0  0  0  0  0
   54.3576   -3.9396   -9.2444 C   0  0  0  0  0  0  0  0  0  0  0  0
   53.5887   -3.3879  -10.0939 O   0  0  0  0  0  0  0  0  0  0  0  0
   56.3065   -4.6581   -8.8180 H   0  0  0  0  0  0  0  0  0  0  0  0
   56.3658   -3.7453  -10.7264 C   0  0  0  0  0  0  0  0  0  0  0  0
   57.6673   -4.4431  -10.9516 C   0  0  0  0  0  0  0  0  0  0  0  0
   58.1288   -4.2137  -12.3845 C   0  0  0  0  0  0  0  0  0  0  0  0
   56.9951   -3.7572  -13.2339 C   0  0  0  0  0  0  0  0  0  0  0  0
   58.8654   -3.3596  -14.8194 N   0  0  0  0  0  0  0  0  0  0  0  0
   57.4502   -3.3726  -14.6456 C   0  0  0  0  0  0  0  0  0  0  0  0
   59.0882   -3.5999  -15.8319 H   0  0  0  0  0  0  0  0  0  0  0  0
   59.3475   -2.4791  -14.6418 H   0  0  0  0  0  0  0  0  0  0  0  0
   56.7093   -4.1773  -15.6471 C   0  0  0  0  0  0  0  0  0  0  0  0
   56.3193   -5.3252  -15.3624 O   0  0  0  0  0  0  0  0  0  0  0  0
   56.4360   -3.6080  -16.9675 C   0  0  0  0  0  0  0  0  0  0  0  0
   57.2714   -3.9304  -18.0106 C   0  0  0  0  0  0  0  0  0  0  0  0
   57.0234   -3.4409  -19.2831 C   0  0  0  0  0  0  0  0  0  0  0  0
   55.9170   -2.6153  -19.4996 C   0  0  0  0  0  0  0  0  0  0  0  0
   55.0626   -2.2732  -18.4813 C   0  0  0  0  0  0  0  0  0  0  0  0
   55.3756   -2.8038  -17.2274 C   0  0  0  0  0  0  0  0  0  0  0  0
   53.8917   -1.4417  -18.6533 C   0  0  0  0  0  0  0  0  0  0  0  0
   52.9484   -1.7869  -19.6451 N   0  0  0  0  0  0  0  0  0  0  0  0
   53.6964   -0.4074  -17.9431 N   0  0  0  0  0  0  0  0  0  0  0  0
   52.7448   -1.1153  -20.4049 H   0  0  0  0  0  0  0  0  0  0  0  0
   52.4712   -2.6959  -19.6136 H   0  0  0  0  0  0  0  0  0  0  0  0
   54.3645   -0.1228  -17.2174 H   0  0  0  0  0  0  0  0  0  0  0  0
   52.4791   -3.9793   -7.5771 N   0  0  0  0  0  0  0  0  0  0  0  0
   51.2240   -3.6249   -7.1957 C   0  0  0  0  0  0  0  0  0  0  0  0
   50.7451   -2.4326   -7.1571 O   0  0  0  0  0  0  0  0  0  0  0  0
   52.8085   -2.6629   -7.6790 H   0  0  0  0  0  0  0  0  0  0  0  0
   50.1702   -4.6372   -6.7574 C   0  0  0  0  0  0  0  0  0  0  0  0
   50.5542   -4.9923   -5.3549 C   0  0  0  0  0  0  0  0  0  0  0  0
   49.9344   -4.4937   -4.2675 C   0  0  0  0  0  0  0  0  0  0  0  0
   50.3482   -4.9121   -2.9906 C   0  0  0  0  0  0  0  0  0  0  0  0
   51.3521   -5.8038   -2.7988 C   0  0  0  0  0  0  0  0  0  0  0  0
   51.9609   -6.2900   -3.9839 C   0  0  0  0  0  0  0  0  0  0  0  0
   51.5774   -5.8988   -5.2324 C   0  0  0  0  0  0  0  0  0  0  0  0
   51.8890   -6.2650   -1.5456 C   0  0  0  0  0  0  0  0  0  0  0  0
   53.0459   -5.6459   -1.2671 O   0  0  0  0  0  0  0  0  0  0  0  0
   51.5057   -7.1723   -0.5828 N   0  0  0  0  0  0  0  0  0  0  0  0
   52.5476   -7.3032    0.5092 C   0  0  0  0  0  0  0  0  0  0  0  0
   53.1006   -8.6978    0.2475 C   0  0  0  0  0  0  0  0  0  0  0  0
   52.3683   -9.7337    1.0237 C   0  0  0  0  0  0  0  0  0  0  0  0
   50.9759   -9.8935    0.7381 N   0  0  0  0  0  0  0  0  0  0  0  0
   50.1615   -9.6047    1.9105 C   0  0  0  0  0  0  0  0  0  0  0  0
   50.4899   -9.3848   -0.4845 C   0  0  0  0  0  0  0  0  0  0  0  0
   50.2821   -7.8770   -0.5476 C   0  0  0  0  0  0  0  0  0  0  0  0
   54.8466   -4.1838   -6.9166 C   0  0  0  0  0  0  0  0  0  0  0  0
   55.0431   -5.3597   -6.0638 C   0  0  0  0  0  0  0  0  0  0  0  0
   55.4386   -5.1090   -4.7312 C   0  0  0  0  0  0  0  0  0  0  0  0
   55.6191   -6.1599   -3.8630 C   0  0  0  0  0  0  0  0  0  0  0  0
   55.4195   -7.4533   -4.2738 C   0  0  0  0  0  0  0  0  0  0  0  0
   55.0394   -7.6919   -5.5571 C   0  0  0  0  0  0  0  0  0  0  0  0
   54.8473   -6.6483   -6.4658 C   0  0  0  0  0  0  0  0  0  0  0  0
 10 11  1  0  0  0
 11  9  1  0  0  0
  9  8  1  0  0  0
  8  7  1  0  0  0
  7  6  1  0  0  0
  6  2  1  0  0  0
  2  3  1  0  0  0
  3  4  2  0  0  0
  3  1  1  0  0  0
  1 49  1  0  0  0
 49 50  1  0  0  0
 50 51  2  0  0  0
 51 52  1  0  0  0
 52 53  2  0  0  0
 53 54  1  0  0  0
 54 55  2  0  0  0
  1 28  1  0  0  0
 28 29  1  0  0  0
 29 30  2  0  0  0
 29 32  1  0  0  0
 32 33  1  0  0  0
 33 34  2  0  0  0
 34 35  1  0  0  0
 35 36  2  0  0  0
 36 37  1  0  0  0
 37 38  2  0  0  0
 36 39  1  0  0  0
 39 40  2  0  0  0
 39 41  1  0  0  0
 41 42  1  0  0  0
 42 43  1  0  0  0
 43 44  1  0  0  0
 44 45  1  0  0  0
 45 46  1  0  0  0
 45 47  1  0  0  0
 47 48  1  0  0  0
 11 14  1  0  0  0
 14 15  2  0  0  0
 14 16  1  0  0  0
 16 17  2  0  0  0
 17 18  1  0  0  0
 18 19  2  0  0  0
 19 20  1  0  0  0
 20 21  2  0  0  0
 20 22  1  0  0  0
 22 23  1  0  0  0
 22 24  2  0  0  0
 55 50  1  0  0  0
 38 33  1  0  0  0
 48 41  1  0  0  0
 21 16  1  0  0  0
 10 12  1  0  0  0
 10 13  1  0  0  0
  2  5  1  0  0  0
 28 31  1  0  0  0
 23 25  1  0  0  0
 23 26  1  0  0  0
 24 27  1  0  0  0
M  END
> <minimizedAffinity>
-9.47512

> <CNNscore>
0.1552961171

> <CNNaffinity>
6.9065904617

> <CNN_VS>
1.0725666285

> <CNNaffinity_variance>
0.1967537850

$$$$
[H]N=C(c1c([H])c([H])c([H])c(C(=O)[C@]([H])(N([H])[H])C([H])([H])C([H])([H])C([H])([H])C([H])([H])N([H])C(=O)[C@]([H])(N([H])C(=O)C([H])([H])c2c([H])c([H])c(C(=O)N3C([H])([H])C([H])([H])N(C([H])([H])[H])C([H])([H])C([H])([H])C3([H])[H])c([H])c2[H])C([H])([H])c2c([H])c([H])c([H])c([H])c2[H])c1[H])N([H])[H]


 55 58  0  0  0  0  0  0  0  0999 V2000
   54.4523   -5.8078   -6.9835 C   0  0  0  0  0  0  0  0  0  0  0  0
   53.5724   -6.2769   -4.6589 N   0  0  0  0  0  0  0  0  0  0  0  0
   54.4584   -5.6456   -5.5128 C   0  0  0  0  0  0  0  0  0  0  0  0
   55.3439   -4.8637   -5.0417 O   0  0  0  0  0  0  0  0  0  0  0  0
   52.8623   -6.9772   -5.0940 H   0  0  0  0  0  0  0  0  0  0  0  0
   53.4822   -6.1261   -3.2583 C   0  0  0  0  0  0  0  0  0  0  0  0
   52.1237   -6.3927   -2.6971 C   0  0  0  0  0  0  0  0  0  0  0  0
   52.1978   -7.5458   -1.7053 C   0  0  0  0  0  0  0  0  0  0  0  0
   51.0134   -8.4359   -1.8464 C   0  0  0  0  0  0  0  0  0  0  0  0
   52.2717  -10.5692   -1.6576 N   0  0  0  0  0  0  0  0  0  0  0  0
   51.2103   -9.7763   -1.1304 C   0  0  0  0  0  0  0  0  0  0  0  0
   52.6767  -11.1640   -0.8735 H   0  0  0  0  0  0  0  0  0  0  0  0
   52.0356  -11.2287   -2.3983 H   0  0  0  0  0  0  0  0  0  0  0  0
   51.2681   -9.5572    0.3353 C   0  0  0  0  0  0  0  0  0  0  0  0
   52.3675   -9.5164    0.9186 O   0  0  0  0  0  0  0  0  0  0  0  0
   50.0239   -9.3833    1.0861 C   0  0  0  0  0  0  0  0  0  0  0  0
   49.7711   -8.1649    1.6706 C   0  0  0  0  0  0  0  0  0  0  0  0
   48.5870   -7.9505    2.3579 C   0  0  0  0  0  0  0  0  0  0  0  0
   47.6500   -8.9827    2.4539 C   0  0  0  0  0  0  0  0  0  0  0  0
   47.8699  -10.2113    1.8827 C   0  0  0  0  0  0  0  0  0  0  0  0
   49.0842  -10.3534    1.2066 C   0  0  0  0  0  0  0  0  0  0  0  0
   46.9264  -11.3063    1.9321 C   0  0  0  0  0  0  0  0  0  0  0  0
   46.8962  -12.2307    0.8657 N   0  0  0  0  0  0  0  0  0  0  0  0
   46.1210  -11.4512    2.9029 N   0  0  0  0  0  0  0  0  0  0  0  0
   46.0231  -12.3497    0.3241 H   0  0  0  0  0  0  0  0  0  0  0  0
   47.7329  -12.7774    0.6287 H   0  0  0  0  0  0  0  0  0  0  0  0
   46.1106  -10.7945    3.6920 H   0  0  0  0  0  0  0  0  0  0  0  0
   55.2499   -5.1192   -7.8380 N   0  0  0  0  0  0  0  0  0  0  0  0
   56.0436   -4.4232   -8.6938 C   0  0  0  0  0  0  0  0  0  0  0  0
   55.8167   -3.2478   -9.1617 O   0  0  0  0  0  0  0  0  0  0  0  0
   54.3096   -4.1399   -7.9305 H   0  0  0  0  0  0  0  0  0  0  0  0
   57.3690   -4.9614   -9.2237 C   0  0  0  0  0  0  0  0  0  0  0  0
   57.3889   -4.5532  -10.6636 C   0  0  0  0  0  0  0  0  0  0  0  0
   58.5128   -4.2057  -11.3205 C   0  0  0  0  0  0  0  0  0  0  0  0
   58.4334   -3.8665  -12.6827 C   0  0  0  0  0  0  0  0  0  0  0  0
   57.2670   -3.8727  -13.3749 C   0  0  0  0  0  0  0  0  0  0  0  0
   56.1232   -4.2483  -12.6252 C   0  0  0  0  0  0  0  0  0  0  0  0
   56.1753   -4.5808  -11.3039 C   0  0  0  0  0  0  0  0  0  0  0  0
   57.0601   -3.4997  -14.7495 C   0  0  0  0  0  0  0  0  0  0  0  0
   55.7544   -3.5180  -15.0561 O   0  0  0  0  0  0  0  0  0  0  0  0
   57.8671   -3.1355  -15.8046 N   0  0  0  0  0  0  0  0  0  0  0  0
   57.0690   -2.9355  -17.0766 C   0  0  0  0  0  0  0  0  0  0  0  0
   57.5089   -4.1303  -17.9123 C   0  0  0  0  0  0  0  0  0  0  0  0
   58.6797   -3.8008  -18.7681 C   0  0  0  0  0  0  0  0  0  0  0  0
   59.8876   -3.4290  -18.0985 N   0  0  0  0  0  0  0  0  0  0  0  0
   60.2842   -2.0707  -18.4435 C   0  0  0  0  0  0  0  0  0  0  0  0
   60.0235   -3.7790  -16.7388 C   0  0  0  0  0  0  0  0  0  0  0  0
   59.2606   -2.9130  -15.7445 C   0  0  0  0  0  0  0  0  0  0  0  0
   52.9756   -5.9472   -7.3641 C   0  0  0  0  0  0  0  0  0  0  0  0
   52.2339   -4.6842   -7.4220 C   0  0  0  0  0  0  0  0  0  0  0  0
   51.1578   -4.5467   -6.5175 C   0  0  0  0  0  0  0  0  0  0  0  0
   50.4293   -3.3807   -6.4945 C   0  0  0  0  0  0  0  0  0  0  0  0
   50.7341   -2.3447   -7.3404 C   0  0  0  0  0  0  0  0  0  0  0  0
   51.7699   -2.4798   -8.2104 C   0  0  0  0  0  0  0  0  0  0  0  0
   52.5308   -3.6505   -8.2609 C   0  0  0  0  0  0  0  0  0  0  0  0
 10 11  1  0  0  0
 11  9  1  0  0  0
  9  8  1  0  0  0
  8  7  1  0  0  0
  7  6  1  0  0  0
  6  2  1  0  0  0
  2  3  1  0  0  0
  3  4  2  0  0  0
  3  1  1  0  0  0
  1 49  1  0  0  0
 49 50  1  0  0  0
 50 51  2  0  0  0
 51 52  1  0  0  0
 52 53  2  0  0  0
 53 54  1  0  0  0
 54 55  2  0  0  0
  1 28  1  0  0  0
 28 29  1  0  0  0
 29 30  2  0  0  0
 29 32  1  0  0  0
 32 33  1  0  0  0
 33 34  2  0  0  0
 34 35  1  0  0  0
 35 36  2  0  0  0
 36 37  1  0  0  0
 37 38  2  0  0  0
 36 39  1  0  0  0
 39 40  2  0  0  0
 39 41  1  0  0  0
 41 42  1  0  0  0
 42 43  1  0  0  0
 43 44  1  0  0  0
 44 45  1  0  0  0
 45 46  1  0  0  0
 45 47  1  0  0  0
 47 48  1  0  0  0
 11 14  1  0  0  0
 14 15  2  0  0  0
 14 16  1  0  0  0
 16 17  2  0  0  0
 17 18  1  0  0  0
 18 19  2  0  0  0
 19 20  1  0  0  0
 20 21  2  0  0  0
 20 22  1  0  0  0
 22 23  1  0  0  0
 22 24  2  0  0  0
 55 50  1  0  0  0
 38 33  1  0  0  0
 48 41  1  0  0  0
 21 16  1  0  0  0
 10 12  1  0  0  0
 10 13  1  0  0  0
  2  5  1  0  0  0
 28 31  1  0  0  0
 23 25  1  0  0  0
 23 26  1  0  0  0
 24 27  1  0  0  0
M  END
> <minimizedAffinity>
-10.05892

> <CNNscore>
0.1523954272

> <CNNaffinity>
6.3777427673

> <CNN_VS>
0.9719388485

> <CNNaffinity_variance>
0.2206316441

$$$$
[H]OC(=O)C([H])([H])[C@@]1([H])C([H])([H])c2c([H])c([H])c(C(=O)N([H])[C@]3([H])C([H])([H])[C@@]4([H])[C@@]([H])(c5c([H])c([H])c([H])c([H])c5[H])C([H])([H])[C@@]43[H])c([H])c2C1([H])[H]


 30 34  0  0  0  0  0  0  0  0999 V2000
   56.1806   -5.0298   -8.3359 O   0  0  0  0  0  0  0  0  0  0  0  0
   55.0907   -4.2215   -8.9750 C   0  0  0  0  0  0  0  0  0  0  0  0
   55.2975   -3.6278  -10.3369 N   0  0  0  0  0  0  0  0  0  0  0  0
   54.1098   -2.8521  -10.8246 H   0  0  0  0  0  0  0  0  0  0  0  0
   53.7939   -4.0068   -8.2523 C   0  0  0  0  0  0  0  0  0  0  0  0
   53.4545   -4.8452   -7.0557 C   0  0  0  0  0  0  0  0  0  0  0  0
   52.1577   -4.6306   -6.3330 C   0  0  0  0  0  0  0  0  0  0  0  0
   51.2004   -3.5775   -6.8069 C   0  0  0  0  0  0  0  0  0  0  0  0
   51.5397   -2.7391   -8.0035 C   0  0  0  0  0  0  0  0  0  0  0  0
   52.8366   -2.9538   -8.7262 C   0  0  0  0  0  0  0  0  0  0  0  0
   50.0061   -3.5946   -5.8995 C   0  0  0  0  0  0  0  0  0  0  0  0
   50.2254   -4.6582   -4.8647 C   0  0  0  0  0  0  0  0  0  0  0  0
   51.5552   -5.2985   -5.1327 C   0  0  0  0  0  0  0  0  0  0  0  0
   48.8828   -4.2212   -4.3584 C   0  0  0  0  0  0  0  0  0  0  0  0
   47.5401   -3.7842   -3.8520 C   0  0  0  0  0  0  0  0  0  0  0  0
   46.9780   -2.4567   -4.2663 O   0  0  0  0  0  0  0  0  0  0  0  0
   46.7596   -4.6748   -2.9313 O   0  0  0  0  0  0  0  0  0  0  0  0
   45.6354   -2.0197   -3.7599 H   0  0  0  0  0  0  0  0  0  0  0  0
   56.5942   -3.8424  -11.0596 C   0  0  0  0  0  0  0  0  0  0  0  0
   55.9429   -3.4372  -12.3486 C   0  0  0  0  0  0  0  0  0  0  0  0
   57.2397   -3.6518  -13.0714 C   0  0  0  0  0  0  0  0  0  0  0  0
   57.8910   -4.0571  -11.7824 C   0  0  0  0  0  0  0  0  0  0  0  0
   59.1877   -4.2717  -12.5051 C   0  0  0  0  0  0  0  0  0  0  0  0
   58.5364   -3.8665  -13.7941 C   0  0  0  0  0  0  0  0  0  0  0  0
   57.8851   -3.4613  -15.0832 C   0  0  0  0  0  0  0  0  0  0  0  0
   58.6578   -2.6722  -16.0982 C   0  0  0  0  0  0  0  0  0  0  0  0
   58.0066   -2.2669  -17.3872 C   0  0  0  0  0  0  0  0  0  0  0  0
   56.5826   -2.6509  -17.6612 C   0  0  0  0  0  0  0  0  0  0  0  0
   55.8099   -3.4400  -16.6462 C   0  0  0  0  0  0  0  0  0  0  0  0
   56.4612   -3.8452  -15.3571 C   0  0  0  0  0  0  0  0  0  0  0  0
  1  2  2  0  0  0
  2  3  1  0  0  0
  3 19  1  0  0  0
 19 20  1  0  0  0
 20 21  1  0  0  0
 21 22  1  0  0  0
 22 23  1  0  0  0
 23 24  1  0  0  0
 24 25  1  0  0  0
 25 26  2  0  0  0
 26 27  1  0  0  0
 27 28  2  0  0  0
 28 29  1  0  0  0
 29 30  2  0  0  0
  2  5  1  0  0  0
  5  6  2  0  0  0
  6  7  1  0  0  0
  7  8  2  0  0  0
  8  9  1  0  0  0
  9 10  2  0  0  0
  8 11  1  0  0  0
 11 12  1  0  0  0
 12 14  1  0  0  0
 14 15  1  0  0  0
 15 16  1  0  0  0
 15 17  2  0  0  0
 12 13  1  0  0  0
 22 19  1  0  0  0
 30 25  1  0  0  0
 10  5  1  0  0  0
 24 21  1  0  0  0
 13  7  1  0  0  0
  3  4  1  0  0  0
 16 18  1  0  0  0
M  END
> <minimizedAffinity>
-8.83280

> <CNNscore>
0.5885573030

> <CNNaffinity>
6.6578307152

> <CNN_VS>
3.9185149670

> <CNNaffinity_variance>
0.3043698370

$$$$
[H]OC(=O)C([H])([H])[C@@]1([H])C([H])([H])c2c([H])c([H])c(C(=O)N([H])[C@]3([H])C([H])([H])[C@@]4([H])[C@@]([H])(c5c([H])c([H])c([H])c([H])c5[H])C([H])([H])[C@@]43[H])c([H])c2C1([H])[H]


 30 34  0  0  0  0  0  0  0  0999 V2000
   57.4414   -5.3264   -9.1441 O   0  0  0  0  0  0  0  0  0  0  0  0
   56.2128   -4.5514   -9.5177 C   0  0  0  0  0  0  0  0  0  0  0  0
   56.1714   -3.7872  -10.8077 N   0  0  0  0  0  0  0  0  0  0  0  0
   54.8711   -3.0709  -11.0232 H   0  0  0  0  0  0  0  0  0  0  0  0
   55.0253   -4.5405   -8.6012 C   0  0  0  0  0  0  0  0  0  0  0  0
   53.9104   -3.5635   -8.8299 C   0  0  0  0  0  0  0  0  0  0  0  0
   52.7229   -3.5526   -7.9135 C   0  0  0  0  0  0  0  0  0  0  0  0
   52.6504   -4.5187   -6.7683 C   0  0  0  0  0  0  0  0  0  0  0  0
   53.7654   -5.4957   -6.5396 C   0  0  0  0  0  0  0  0  0  0  0  0
   54.9529   -5.5066   -7.4561 C   0  0  0  0  0  0  0  0  0  0  0  0
   51.3638   -4.2749   -6.0368 C   0  0  0  0  0  0  0  0  0  0  0  0
   50.6411   -3.1580   -6.7299 C   0  0  0  0  0  0  0  0  0  0  0  0
   51.4811   -2.7116   -7.8897 C   0  0  0  0  0  0  0  0  0  0  0  0
   49.6048   -3.3806   -5.6686 C   0  0  0  0  0  0  0  0  0  0  0  0
   48.5684   -3.6032   -4.6072 C   0  0  0  0  0  0  0  0  0  0  0  0
   47.4068   -2.6622   -4.4841 O   0  0  0  0  0  0  0  0  0  0  0  0
   48.6938   -4.7667   -3.6689 O   0  0  0  0  0  0  0  0  0  0  0  0
   46.3704   -2.8848   -3.4228 H   0  0  0  0  0  0  0  0  0  0  0  0
   57.3588   -3.7980  -11.7242 C   0  0  0  0  0  0  0  0  0  0  0  0
   56.4689   -3.4521  -12.8812 C   0  0  0  0  0  0  0  0  0  0  0  0
   57.6563   -3.4629  -13.7977 C   0  0  0  0  0  0  0  0  0  0  0  0
   58.5462   -3.8088  -12.6408 C   0  0  0  0  0  0  0  0  0  0  0  0
   59.7335   -3.8196  -13.5573 C   0  0  0  0  0  0  0  0  0  0  0  0
   58.8437   -3.4737  -14.7142 C   0  0  0  0  0  0  0  0  0  0  0  0
   57.9538   -3.1279  -15.8712 C   0  0  0  0  0  0  0  0  0  0  0  0
   56.5862   -3.7355  -15.9733 C   0  0  0  0  0  0  0  0  0  0  0  0
   55.6964   -3.3897  -17.1303 C   0  0  0  0  0  0  0  0  0  0  0  0
   56.1742   -2.4363  -18.1851 C   0  0  0  0  0  0  0  0  0  0  0  0
   57.5418   -1.8286  -18.0830 C   0  0  0  0  0  0  0  0  0  0  0  0
   58.4316   -2.1745  -16.9260 C   0  0  0  0  0  0  0  0  0  0  0  0
  1  2  2  0  0  0
  2  3  1  0  0  0
  3 19  1  0  0  0
 19 20  1  0  0  0
 20 21  1  0  0  0
 21 22  1  0  0  0
 22 23  1  0  0  0
 23 24  1  0  0  0
 24 25  1  0  0  0
 25 26  2  0  0  0
 26 27  1  0  0  0
 27 28  2  0  0  0
 28 29  1  0  0  0
 29 30  2  0  0  0
  2  5  1  0  0  0
  5  6  2  0  0  0
  6  7  1  0  0  0
  7  8  2  0  0  0
  8  9  1  0  0  0
  9 10  2  0  0  0
  8 11  1  0  0  0
 11 12  1  0  0  0
 12 14  1  0  0  0
 14 15  1  0  0  0
 15 16  1  0  0  0
 15 17  2  0  0  0
 12 13  1  0  0  0
 22 19  1  0  0  0
 30 25  1  0  0  0
 10  5  1  0  0  0
 24 21  1  0  0  0
 13  7  1  0  0  0
  3  4  1  0  0  0
 16 18  1  0  0  0
M  END
> <minimizedAffinity>
-9.41294

> <CNNscore>
0.5451688170

> <CNNaffinity>
6.6567869186

> <CNN_VS>
3.6290726662

> <CNNaffinity_variance>
0.2950631082

$$$$
[H]OC(=O)C([H])([H])[C@@]1([H])C([H])([H])c2c([H])c([H])c(C(=O)N([H])[C@]3([H])C([H])([H])[C@@]4([H])[C@@]([H])(c5c([H])c([H])c([H])c([H])c5[H])C([H])([H])[C@@]43[H])c([H])c2C1([H])[H]


 30 34  0  0  0  0  0  0  0  0999 V2000
   54.4757   -4.4447   -9.9944 O   0  0  0  0  0  0  0  0  0  0  0  0
   54.4027   -4.3890   -8.4973 C   0  0  0  0  0  0  0  0  0  0  0  0
   55.6246   -4.6753   -7.6756 N   0  0  0  0  0  0  0  0  0  0  0  0
   55.3750   -4.5758   -6.1998 H   0  0  0  0  0  0  0  0  0  0  0  0
   53.1078   -4.0471   -7.8216 C   0  0  0  0  0  0  0  0  0  0  0  0
   52.6547   -4.8333   -6.6272 C   0  0  0  0  0  0  0  0  0  0  0  0
   51.3599   -4.4914   -5.9515 C   0  0  0  0  0  0  0  0  0  0  0  0
   50.5181   -3.3635   -6.4703 C   0  0  0  0  0  0  0  0  0  0  0  0
   50.9712   -2.5774   -7.6648 C   0  0  0  0  0  0  0  0  0  0  0  0
   52.2661   -2.9193   -8.3404 C   0  0  0  0  0  0  0  0  0  0  0  0
   49.2982   -3.2588   -5.6038 C   0  0  0  0  0  0  0  0  0  0  0  0
   49.3860   -4.3222   -4.5495 C   0  0  0  0  0  0  0  0  0  0  0  0
   50.6602   -5.0839   -4.7644 C   0  0  0  0  0  0  0  0  0  0  0  0
   48.0728   -3.7580   -4.0943 C   0  0  0  0  0  0  0  0  0  0  0  0
   46.7596   -3.1939   -3.6390 C   0  0  0  0  0  0  0  0  0  0  0  0
   45.7520   -4.0831   -2.9727 O   0  0  0  0  0  0  0  0  0  0  0  0
   46.4541   -1.7406   -3.8500 O   0  0  0  0  0  0  0  0  0  0  0  0
   44.4387   -3.5189   -2.5174 H   0  0  0  0  0  0  0  0  0  0  0  0
   56.9195   -5.0172   -8.3512 C   0  0  0  0  0  0  0  0  0  0  0  0
   56.4147   -4.4093   -9.6262 C   0  0  0  0  0  0  0  0  0  0  0  0
   57.7096   -4.7512  -10.3018 C   0  0  0  0  0  0  0  0  0  0  0  0
   58.2143   -5.3590   -9.0267 C   0  0  0  0  0  0  0  0  0  0  0  0
   59.5092   -5.7009   -9.7022 C   0  0  0  0  0  0  0  0  0  0  0  0
   59.0045   -5.0931  -10.9773 C   0  0  0  0  0  0  0  0  0  0  0  0
   58.4998   -4.4852  -12.2524 C   0  0  0  0  0  0  0  0  0  0  0  0
   59.4500   -3.7808  -13.1749 C   0  0  0  0  0  0  0  0  0  0  0  0
   58.9454   -3.1729  -14.4500 C   0  0  0  0  0  0  0  0  0  0  0  0
   57.4906   -3.2696  -14.8026 C   0  0  0  0  0  0  0  0  0  0  0  0
   56.5404   -3.9741  -13.8802 C   0  0  0  0  0  0  0  0  0  0  0  0
   57.0451   -4.5819  -12.6050 C   0  0  0  0  0  0  0  0  0  0  0  0
  1  2  2  0  0  0
  2  3  1  0  0  0
  3 19  1  0  0  0
 19 20  1  0  0  0
 20 21  1  0  0  0
 21 22  1  0  0  0
 22 23  1  0  0  0
 23 24  1  0  0  0
 24 25  1  0  0  0
 25 26  2  0  0  0
 26 27  1  0  0  0
 27 28  2  0  0  0
 28 29  1  0  0  0
 29 30  2  0  0  0
  2  5  1  0  0  0
  5  6  2  0  0  0
  6  7  1  0  0  0
  7  8  2  0  0  0
  8  9  1  0  0  0
  9 10  2  0  0  0
  8 11  1  0  0  0
 11 12  1  0  0  0
 12 14  1  0  0  0
 14 15  1  0  0  0
 15 16  1  0  0  0
 15 17  2  0  0  0
 12 13  1  0  0  0
 22 19  1  0  0  0
 30 25  1  0  0  0
 10  5  1  0  0  0
 24 21  1  0  0  0
 13  7  1  0  0  0
  3  4  1  0  0  0
 16 18  1  0  0  0
M  END
> <minimizedAffinity>
-9.10844

> <CNNscore>
0.4288525283

> <CNNaffinity>
6.5481424332

> <CNN_VS>
2.8081874847

> <CNNaffinity_variance>
0.2664332390

$$$$
[H]OC(=O)C([H])([H])[C@@]1([H])C([H])([H])c2c([H])c([H])c(C(=O)N([H])[C@]3([H])C([H])([H])[C@@]4([H])[C@@]([H])(c5c([H])c([H])c([H])c([H])c5[H])C([H])([H])[C@@]43[H])c([H])c2C1([H])[H]


 30 34  0  0  0  0  0  0  0  0999 V2000
   55.4161   -3.3326   -7.1983 O   0  0  0  0  0  0  0  0  0  0  0  0
   55.3991   -3.8672   -8.5995 C   0  0  0  0  0  0  0  0  0  0  0  0
   54.1183   -3.8849   -9.3801 N   0  0  0  0  0  0  0  0  0  0  0  0
   54.2804   -4.4507  -10.7598 H   0  0  0  0  0  0  0  0  0  0  0  0
   56.6629   -4.3843   -9.2205 C   0  0  0  0  0  0  0  0  0  0  0  0
   57.7165   -5.0172   -8.3606 C   0  0  0  0  0  0  0  0  0  0  0  0
   58.9803   -5.5343   -8.9815 C   0  0  0  0  0  0  0  0  0  0  0  0
   59.1904   -5.4185  -10.4622 C   0  0  0  0  0  0  0  0  0  0  0  0
   58.1369   -4.7856  -11.3220 C   0  0  0  0  0  0  0  0  0  0  0  0
   56.8730   -4.2685  -10.7011 C   0  0  0  0  0  0  0  0  0  0  0  0
   60.5278   -6.0142  -10.7885 C   0  0  0  0  0  0  0  0  0  0  0  0
   61.1442   -6.4982   -9.5095 C   0  0  0  0  0  0  0  0  0  0  0  0
   60.1878   -6.2016   -8.3927 C   0  0  0  0  0  0  0  0  0  0  0  0
   62.2791   -6.9141  -10.3978 C   0  0  0  0  0  0  0  0  0  0  0  0
   63.4141   -7.3301  -11.2860 C   0  0  0  0  0  0  0  0  0  0  0  0
   63.8266   -6.4574  -12.4341 O   0  0  0  0  0  0  0  0  0  0  0  0
   64.1365   -8.6187  -11.0260 O   0  0  0  0  0  0  0  0  0  0  0  0
   64.9616   -6.8734  -13.3223 H   0  0  0  0  0  0  0  0  0  0  0  0
   52.8545   -3.3678   -8.7592 C   0  0  0  0  0  0  0  0  0  0  0  0
   52.9993   -4.3568   -7.6408 C   0  0  0  0  0  0  0  0  0  0  0  0
   51.7355   -3.8397   -7.0199 C   0  0  0  0  0  0  0  0  0  0  0  0
   51.5907   -2.8507   -8.1384 C   0  0  0  0  0  0  0  0  0  0  0  0
   50.3269   -2.3337   -7.5175 C   0  0  0  0  0  0  0  0  0  0  0  0
   50.4717   -3.3227   -6.3991 C   0  0  0  0  0  0  0  0  0  0  0  0
   50.6165   -4.3117   -5.2806 C   0  0  0  0  0  0  0  0  0  0  0  0
   51.6594   -5.3868   -5.3605 C   0  0  0  0  0  0  0  0  0  0  0  0
   51.8042   -6.3758   -4.2421 C   0  0  0  0  0  0  0  0  0  0  0  0
   50.9060   -6.2897   -3.0438 C   0  0  0  0  0  0  0  0  0  0  0  0
   49.8630   -5.2146   -2.9639 C   0  0  0  0  0  0  0  0  0  0  0  0
   49.7183   -4.2255   -4.0824 C   0  0  0  0  0  0  0  0  0  0  0  0
  1  2  2  0  0  0
  2  3  1  0  0  0
  3 19  1  0  0  0
 19 20  1  0  0  0
 20 21  1  0  0  0
 21 22  1  0  0  0
 22 23  1  0  0  0
 23 24  1  0  0  0
 24 25  1  0  0  0
 25 26  2  0  0  0
 26 27  1  0  0  0
 27 28  2  0  0  0
 28 29  1  0  0  0
 29 30  2  0  0  0
  2  5  1  0  0  0
  5  6  2  0  0  0
  6  7  1  0  0  0
  7  8  2  0  0  0
  8  9  1  0  0  0
  9 10  2  0  0  0
  8 11  1  0  0  0
 11 12  1  0  0  0
 12 14  1  0  0  0
 14 15  1  0  0  0
 15 16  1  0  0  0
 15 17  2  0  0  0
 12 13  1  0  0  0
 22 19  1  0  0  0
 30 25  1  0  0  0
 10  5  1  0  0  0
 24 21  1  0  0  0
 13  7  1  0  0  0
  3  4  1  0  0  0
 16 18  1  0  0  0
M  END
> <minimizedAffinity>
-9.31579

> <CNNscore>
0.3985845149

> <CNNaffinity>
6.2573990822

> <CNN_VS>
2.4941024780

> <CNNaffinity_variance>
0.2651741505

$$$$
[H]OC(=O)C([H])([H])[C@@]1([H])C([H])([H])c2c([H])c([H])c(C(=O)N([H])[C@]3([H])C([H])([H])[C@@]4([H])[C@@]([H])(c5c([H])c([H])c([H])c([H])c5[H])C([H])([H])[C@@]43[H])c([H])c2C1([H])[H]


 30 34  0  0  0  0  0  0  0  0999 V2000
   57.7544   -6.4596  -10.7634 O   0  0  0  0  0  0  0  0  0  0  0  0
   58.7476   -6.3698   -9.6431 C   0  0  0  0  0  0  0  0  0  0  0  0
   58.6268   -5.2804   -8.6191 N   0  0  0  0  0  0  0  0  0  0  0  0
   59.6996   -5.3384   -7.5722 H   0  0  0  0  0  0  0  0  0  0  0  0
   59.8619   -7.3695   -9.5466 C   0  0  0  0  0  0  0  0  0  0  0  0
   60.0407   -8.1746   -8.2937 C   0  0  0  0  0  0  0  0  0  0  0  0
   61.1549   -9.1742   -8.1971 C   0  0  0  0  0  0  0  0  0  0  0  0
   62.0902   -9.3688   -9.3535 C   0  0  0  0  0  0  0  0  0  0  0  0
   61.9114   -8.5637  -10.6065 C   0  0  0  0  0  0  0  0  0  0  0  0
   60.7971   -7.5640  -10.7029 C   0  0  0  0  0  0  0  0  0  0  0  0
   63.0892  -10.4199   -8.9700 C   0  0  0  0  0  0  0  0  0  0  0  0
   62.7713  -10.8749   -7.5765 C   0  0  0  0  0  0  0  0  0  0  0  0
   61.5758  -10.1051   -7.0988 C   0  0  0  0  0  0  0  0  0  0  0  0
   63.9519  -11.7794   -7.7713 C   0  0  0  0  0  0  0  0  0  0  0  0
   65.1326  -12.6839   -7.9661 C   0  0  0  0  0  0  0  0  0  0  0  0
   65.7243  -12.8609   -9.3330 O   0  0  0  0  0  0  0  0  0  0  0  0
   65.7216  -13.4113   -6.7939 O   0  0  0  0  0  0  0  0  0  0  0  0
   66.9051  -13.7655   -9.5278 H   0  0  0  0  0  0  0  0  0  0  0  0
   57.5126   -4.2808   -8.7155 C   0  0  0  0  0  0  0  0  0  0  0  0
   56.5998   -5.2287   -7.9955 C   0  0  0  0  0  0  0  0  0  0  0  0
   55.4857   -4.2290   -8.0919 C   0  0  0  0  0  0  0  0  0  0  0  0
   56.3984   -3.2811   -8.8119 C   0  0  0  0  0  0  0  0  0  0  0  0
   55.2843   -2.2815   -8.9083 C   0  0  0  0  0  0  0  0  0  0  0  0
   54.3715   -3.2294   -8.1883 C   0  0  0  0  0  0  0  0  0  0  0  0
   53.4586   -4.1773   -7.4683 C   0  0  0  0  0  0  0  0  0  0  0  0
   54.0330   -5.2676   -6.6132 C   0  0  0  0  0  0  0  0  0  0  0  0
   53.1202   -6.2155   -5.8932 C   0  0  0  0  0  0  0  0  0  0  0  0
   51.6331   -6.0729   -6.0284 C   0  0  0  0  0  0  0  0  0  0  0  0
   51.0588   -4.9826   -6.8835 C   0  0  0  0  0  0  0  0  0  0  0  0
   51.9716   -4.0347   -7.6035 C   0  0  0  0  0  0  0  0  0  0  0  0
  1  2  2  0  0  0
  2  3  1  0  0  0
  3 19  1  0  0  0
 19 20  1  0  0  0
 20 21  1  0  0  0
 21 22  1  0  0  0
 22 23  1  0  0  0
 23 24  1  0  0  0
 24 25  1  0  0  0
 25 26  2  0  0  0
 26 27  1  0  0  0
 27 28  2  0  0  0
 28 29  1  0  0  0
 29 30  2  0  0  0
  2  5  1  0  0  0
  5  6  2  0  0  0
  6  7  1  0  0  0
  7  8  2  0  0  0
  8  9  1  0  0  0
  9 10  2  0  0  0
  8 11  1  0  0  0
 11 12  1  0  0  0
 12 14  1  0  0  0
 14 15  1  0  0  0
 15 16  1  0  0  0
 15 17  2  0  0  0
 12 13  1  0  0  0
 22 19  1  0  0  0
 30 25  1  0  0  0
 10  5  1  0  0  0
 24 21  1  0  0  0
 13  7  1  0  0  0
  3  4  1  0  0  0
 16 18  1  0  0  0
M  END
> <minimizedAffinity>
0.84560

> <CNNscore>
0.3175765574

> <CNNaffinity>
5.4573173523

> <CNN_VS>
1.7331160307

> <CNNaffinity_variance>
0.9010322690

$$$$
[H]OC(=O)C([H])([H])[C@@]1([H])C([H])([H])c2c([H])c([H])c(C(=O)N([H])[C@]3([H])C([H])([H])[C@@]4([H])[C@@]([H])(c5c([H])c([H])c([H])c([H])c5[H])C([H])([H])[C@@]43[H])c([H])c2C1([H])[H]


 30 34  0  0  0  0  0  0  0  0999 V2000
   55.1697   -4.0401  -11.0677 O   0  0  0  0  0  0  0  0  0  0  0  0
   55.2020   -4.2001   -9.5767 C   0  0  0  0  0  0  0  0  0  0  0  0
   56.4742   -4.6052   -8.8932 N   0  0  0  0  0  0  0  0  0  0  0  0
   56.3294   -4.7183   -7.4044 H   0  0  0  0  0  0  0  0  0  0  0  0
   53.9619   -3.9551   -8.7690 C   0  0  0  0  0  0  0  0  0  0  0  0
   53.6350   -4.8464   -7.6077 C   0  0  0  0  0  0  0  0  0  0  0  0
   52.3950   -4.6014   -6.8000 C   0  0  0  0  0  0  0  0  0  0  0  0
   51.4818   -3.4651   -7.1537 C   0  0  0  0  0  0  0  0  0  0  0  0
   51.8087   -2.5738   -8.3150 C   0  0  0  0  0  0  0  0  0  0  0  0
   53.0488   -2.8189   -9.1227 C   0  0  0  0  0  0  0  0  0  0  0  0
   50.3393   -3.4689   -6.1818 C   0  0  0  0  0  0  0  0  0  0  0  0
   50.5463   -4.6075   -5.2275 C   0  0  0  0  0  0  0  0  0  0  0  0
   51.8168   -5.3074   -5.6095 C   0  0  0  0  0  0  0  0  0  0  0  0
   49.2630   -4.1245   -4.6193 C   0  0  0  0  0  0  0  0  0  0  0  0
   47.9797   -3.6415   -4.0111 C   0  0  0  0  0  0  0  0  0  0  0  0
   47.4108   -2.3139   -4.4159 O   0  0  0  0  0  0  0  0  0  0  0  0
   47.2653   -4.4861   -2.9980 O   0  0  0  0  0  0  0  0  0  0  0  0
   46.1275   -1.8309   -3.8077 H   0  0  0  0  0  0  0  0  0  0  0  0
   57.7143   -4.8502   -9.7007 C   0  0  0  0  0  0  0  0  0  0  0  0
   58.2252   -5.7746   -8.6357 C   0  0  0  0  0  0  0  0  0  0  0  0
   59.4653   -6.0197   -9.4432 C   0  0  0  0  0  0  0  0  0  0  0  0
   58.9543   -5.0953  -10.5083 C   0  0  0  0  0  0  0  0  0  0  0  0
   60.1944   -5.3403  -11.3159 C   0  0  0  0  0  0  0  0  0  0  0  0
   60.7054   -6.2647  -10.2508 C   0  0  0  0  0  0  0  0  0  0  0  0
   61.2164   -7.1892   -9.1857 C   0  0  0  0  0  0  0  0  0  0  0  0
   61.8126   -6.6283   -7.9288 C   0  0  0  0  0  0  0  0  0  0  0  0
   62.3236   -7.5526   -6.8637 C   0  0  0  0  0  0  0  0  0  0  0  0
   62.2384   -9.0379   -7.0557 C   0  0  0  0  0  0  0  0  0  0  0  0
   61.6422   -9.5988   -8.3126 C   0  0  0  0  0  0  0  0  0  0  0  0
   61.1312   -8.6743   -9.3777 C   0  0  0  0  0  0  0  0  0  0  0  0
  1  2  2  0  0  0
  2  3  1  0  0  0
  3 19  1  0  0  0
 19 20  1  0  0  0
 20 21  1  0  0  0
 21 22  1  0  0  0
 22 23  1  0  0  0
 23 24  1  0  0  0
 24 25  1  0  0  0
 25 26  2  0  0  0
 26 27  1  0  0  0
 27 28  2  0  0  0
 28 29  1  0  0  0
 29 30  2  0  0  0
  2  5  1  0  0  0
  5  6  2  0  0  0
  6  7  1  0  0  0
  7  8  2  0  0  0
  8  9  1  0  0  0
  9 10  2  0  0  0
  8 11  1  0  0  0
 11 12  1  0  0  0
 12 14  1  0  0  0
 14 15  1  0  0  0
 15 16  1  0  0  0
 15 17  2  0  0  0
 12 13  1  0  0  0
 22 19  1  0  0  0
 30 25  1  0  0  0
 10  5  1  0  0  0
 24 21  1  0  0  0
 13  7  1  0  0  0
  3  4  1  0  0  0
 16 18  1  0  0  0
M  END
> <minimizedAffinity>
-8.39626

> <CNNscore>
0.2931361198

> <CNNaffinity>
6.2945227623

> <CNN_VS>
1.8451520205

> <CNNaffinity_variance>
0.3530895710

$$$$
[H]OC(=O)C([H])([H])[C@@]1([H])C([H])([H])c2c([H])c([H])c(C(=O)N([H])[C@]3([H])C([H])([H])[C@@]4([H])[C@@]([H])(c5c([H])c([H])c([H])c([H])c5[H])C([H])([H])[C@@]43[H])c([H])c2C1([H])[H]


 30 34  0  0  0  0  0  0  0  0999 V2000
   55.7386   -3.9762  -11.0338 O   0  0  0  0  0  0  0  0  0  0  0  0
   56.2389   -4.3292   -9.6646 C   0  0  0  0  0  0  0  0  0  0  0  0
   55.3814   -4.0672   -8.4620 N   0  0  0  0  0  0  0  0  0  0  0  0
   56.0340   -4.4793   -7.1758 H   0  0  0  0  0  0  0  0  0  0  0  0
   57.5968   -4.9444   -9.4977 C   0  0  0  0  0  0  0  0  0  0  0  0
   58.5414   -5.0036  -10.6614 C   0  0  0  0  0  0  0  0  0  0  0  0
   59.8993   -5.6188  -10.4946 C   0  0  0  0  0  0  0  0  0  0  0  0
   60.3125   -6.1747   -9.1641 C   0  0  0  0  0  0  0  0  0  0  0  0
   59.3679   -6.1155   -8.0004 C   0  0  0  0  0  0  0  0  0  0  0  0
   58.0100   -5.5003   -8.1673 C   0  0  0  0  0  0  0  0  0  0  0  0
   61.7044   -6.7168   -9.3003 C   0  0  0  0  0  0  0  0  0  0  0  0
   62.1515   -6.4959  -10.7150 C   0  0  0  0  0  0  0  0  0  0  0  0
   61.0358   -5.8172  -11.4531 C   0  0  0  0  0  0  0  0  0  0  0  0
   63.4159   -7.1572  -10.2525 C   0  0  0  0  0  0  0  0  0  0  0  0
   64.6803   -7.8185   -9.7900 C   0  0  0  0  0  0  0  0  0  0  0  0
   65.5854   -8.4843  -10.7837 O   0  0  0  0  0  0  0  0  0  0  0  0
   65.0397   -7.8141   -8.3337 O   0  0  0  0  0  0  0  0  0  0  0  0
   66.8498   -9.1456  -10.3212 H   0  0  0  0  0  0  0  0  0  0  0  0
   54.0236   -3.4520   -8.6288 C   0  0  0  0  0  0  0  0  0  0  0  0
   53.5761   -4.0925   -7.3484 C   0  0  0  0  0  0  0  0  0  0  0  0
   52.2183   -3.4773   -7.5152 C   0  0  0  0  0  0  0  0  0  0  0  0
   52.6658   -2.8368   -8.7956 C   0  0  0  0  0  0  0  0  0  0  0  0
   51.3079   -2.2217   -8.9624 C   0  0  0  0  0  0  0  0  0  0  0  0
   50.8605   -2.8621   -7.6819 C   0  0  0  0  0  0  0  0  0  0  0  0
   50.4129   -3.5026   -6.4014 C   0  0  0  0  0  0  0  0  0  0  0  0
   49.3739   -2.8335   -5.5514 C   0  0  0  0  0  0  0  0  0  0  0  0
   48.9263   -3.4739   -4.2710 C   0  0  0  0  0  0  0  0  0  0  0  0
   49.5179   -4.7835   -3.8406 C   0  0  0  0  0  0  0  0  0  0  0  0
   50.5570   -5.4526   -4.6906 C   0  0  0  0  0  0  0  0  0  0  0  0
   51.0045   -4.8121   -5.9711 C   0  0  0  0  0  0  0  0  0  0  0  0
  1  2  2  0  0  0
  2  3  1  0  0  0
  3 19  1  0  0  0
 19 20  1  0  0  0
 20 21  1  0  0  0
 21 22  1  0  0  0
 22 23  1  0  0  0
 23 24  1  0  0  0
 24 25  1  0  0  0
 25 26  2  0  0  0
 26 27  1  0  0  0
 27 28  2  0  0  0
 28 29  1  0  0  0
 29 30  2  0  0  0
  2  5  1  0  0  0
  5  6  2  0  0  0
  6  7  1  0  0  0
  7  8  2  0  0  0
  8  9  1  0  0  0
  9 10  2  0  0  0
  8 11  1  0  0  0
 11 12  1  0  0  0
 12 14  1  0  0  0
 14 15  1  0  0  0
 15 16  1  0  0  0
 15 17  2  0  0  0
 12 13  1  0  0  0
 22 19  1  0  0  0
 30 25  1  0  0  0
 10  5  1  0  0  0
 24 21  1  0  0  0
 13  7  1  0  0  0
  3  4  1  0  0  0
 16 18  1  0  0  0
M  END
> <minimizedAffinity>
-7.24492

> <CNNscore>
0.2764002681

> <CNNaffinity>
5.9263010025

> <CNN_VS>
1.6380312443

> <CNNaffinity_variance>
0.6494682431

$$$$
[H]OC(=O)C([H])([H])[C@@]1([H])C([H])([H])c2c([H])c([H])c(C(=O)N([H])[C@]3([H])C([H])([H])[C@@]4([H])[C@@]([H])(c5c([H])c([H])c([H])c([H])c5[H])C([H])([H])[C@@]43[H])c([H])c2C1([H])[H]


 30 34  0  0  0  0  0  0  0  0999 V2000
   54.4634   -3.2500  -11.5476 O   0  0  0  0  0  0  0  0  0  0  0  0
   55.7256   -4.0234  -11.3061 C   0  0  0  0  0  0  0  0  0  0  0  0
   56.6443   -4.3358  -12.4499 N   0  0  0  0  0  0  0  0  0  0  0  0
   57.8568   -5.1141  -12.0322 H   0  0  0  0  0  0  0  0  0  0  0  0
   56.0692   -4.4847   -9.9207 C   0  0  0  0  0  0  0  0  0  0  0  0
   54.9954   -4.5951   -8.8791 C   0  0  0  0  0  0  0  0  0  0  0  0
   55.3390   -5.0563   -7.4938 C   0  0  0  0  0  0  0  0  0  0  0  0
   56.7563   -5.4072   -7.1499 C   0  0  0  0  0  0  0  0  0  0  0  0
   57.8300   -5.2968   -8.1915 C   0  0  0  0  0  0  0  0  0  0  0  0
   57.4864   -4.8355   -9.5769 C   0  0  0  0  0  0  0  0  0  0  0  0
   56.7933   -5.8295   -5.7111 C   0  0  0  0  0  0  0  0  0  0  0  0
   55.3989   -5.7396   -5.1657 C   0  0  0  0  0  0  0  0  0  0  0  0
   54.5000   -5.2618   -6.2674 C   0  0  0  0  0  0  0  0  0  0  0  0
   56.0339   -6.2196   -3.8944 C   0  0  0  0  0  0  0  0  0  0  0  0
   56.6689   -6.6996   -2.6229 C   0  0  0  0  0  0  0  0  0  0  0  0
   58.1559   -6.6108   -2.4473 O   0  0  0  0  0  0  0  0  0  0  0  0
   55.8169   -7.2685   -1.5273 O   0  0  0  0  0  0  0  0  0  0  0  0
   58.7910   -7.0908   -1.1759 H   0  0  0  0  0  0  0  0  0  0  0  0
   56.3008   -3.8746  -13.8353 C   0  0  0  0  0  0  0  0  0  0  0  0
   57.7376   -4.0212  -14.2404 C   0  0  0  0  0  0  0  0  0  0  0  0
   57.3941   -3.5600  -15.6257 C   0  0  0  0  0  0  0  0  0  0  0  0
   55.9573   -3.4134  -15.2206 C   0  0  0  0  0  0  0  0  0  0  0  0
   55.6138   -2.9521  -16.6060 C   0  0  0  0  0  0  0  0  0  0  0  0
   57.0505   -3.0988  -17.0111 C   0  0  0  0  0  0  0  0  0  0  0  0
   58.4874   -3.2454  -17.4163 C   0  0  0  0  0  0  0  0  0  0  0  0
   59.3261   -2.0259  -17.6597 C   0  0  0  0  0  0  0  0  0  0  0  0
   60.7629   -2.1725  -18.0649 C   0  0  0  0  0  0  0  0  0  0  0  0
   61.3609   -3.5386  -18.2266 C   0  0  0  0  0  0  0  0  0  0  0  0
   60.5222   -4.7582  -17.9831 C   0  0  0  0  0  0  0  0  0  0  0  0
   59.0853   -4.6115  -17.5779 C   0  0  0  0  0  0  0  0  0  0  0  0
  1  2  2  0  0  0
  2  3  1  0  0  0
  3 19  1  0  0  0
 19 20  1  0  0  0
 20 21  1  0  0  0
 21 22  1  0  0  0
 22 23  1  0  0  0
 23 24  1  0  0  0
 24 25  1  0  0  0
 25 26  2  0  0  0
 26 27  1  0  0  0
 27 28  2  0  0  0
 28 29  1  0  0  0
 29 30  2  0  0  0
  2  5  1  0  0  0
  5  6  2  0  0  0
  6  7  1  0  0  0
  7  8  2  0  0  0
  8  9  1  0  0  0
  9 10  2  0  0  0
  8 11  1  0  0  0
 11 12  1  0  0  0
 12 14  1  0  0  0
 14 15  1  0  0  0
 15 16  1  0  0  0
 15 17  2  0  0  0
 12 13  1  0  0  0
 22 19  1  0  0  0
 30 25  1  0  0  0
 10  5  1  0  0  0
 24 21  1  0  0  0
 13  7  1  0  0  0
  3  4  1  0  0  0
 16 18  1  0  0  0
M  END
> <minimizedAffinity>
-5.39413

> <CNNscore>
0.2734922469

> <CNNaffinity>
5.5916194916

> <CNN_VS>
1.5292645693

> <CNNaffinity_variance>
0.1416849494

$$$$
[H]OC(=O)C([H])([H])[C@@]1([H])C([H])([H])c2c([H])c([H])c(C(=O)N([H])[C@]3([H])C([H])([H])[C@@]4([H])[C@@]([H])(c5c([H])c([H])c([H])c([H])c5[H])C([H])([H])[C@@]43[H])c([H])c2C1([H])[H]


 30 34  0  0  0  0  0  0  0  0999 V2000
   56.2836   -4.4560  -10.7010 O   0  0  0  0  0  0  0  0  0  0  0  0
   56.3401   -4.8984   -9.2689 C   0  0  0  0  0  0  0  0  0  0  0  0
   57.6080   -5.4739   -8.7111 N   0  0  0  0  0  0  0  0  0  0  0  0
   57.4895   -5.8632   -7.2673 H   0  0  0  0  0  0  0  0  0  0  0  0
   55.1285   -4.7653   -8.3944 C   0  0  0  0  0  0  0  0  0  0  0  0
   54.0412   -3.7993   -8.7615 C   0  0  0  0  0  0  0  0  0  0  0  0
   52.8297   -3.6662   -7.8871 C   0  0  0  0  0  0  0  0  0  0  0  0
   52.7055   -4.4990   -6.6457 C   0  0  0  0  0  0  0  0  0  0  0  0
   53.7928   -5.4649   -6.2787 C   0  0  0  0  0  0  0  0  0  0  0  0
   55.0044   -5.5980   -7.1531 C   0  0  0  0  0  0  0  0  0  0  0  0
   51.4049   -4.1528   -5.9835 C   0  0  0  0  0  0  0  0  0  0  0  0
   50.7253   -3.1061   -6.8156 C   0  0  0  0  0  0  0  0  0  0  0  0
   51.6058   -2.8053   -7.9921 C   0  0  0  0  0  0  0  0  0  0  0  0
   49.6559   -3.1918   -5.7673 C   0  0  0  0  0  0  0  0  0  0  0  0
   48.5865   -3.2775   -4.7189 C   0  0  0  0  0  0  0  0  0  0  0  0
   47.4330   -2.3189   -4.7440 O   0  0  0  0  0  0  0  0  0  0  0  0
   48.6706   -4.3217   -3.6453 O   0  0  0  0  0  0  0  0  0  0  0  0
   46.3636   -2.4046   -3.6956 H   0  0  0  0  0  0  0  0  0  0  0  0
   58.8195   -5.6070   -9.5854 C   0  0  0  0  0  0  0  0  0  0  0  0
   59.6096   -6.1104   -8.4140 C   0  0  0  0  0  0  0  0  0  0  0  0
   60.8211   -6.2435   -9.2884 C   0  0  0  0  0  0  0  0  0  0  0  0
   60.0310   -5.7401  -10.4598 C   0  0  0  0  0  0  0  0  0  0  0  0
   61.2425   -5.8733  -11.3342 C   0  0  0  0  0  0  0  0  0  0  0  0
   62.0326   -6.3767  -10.1627 C   0  0  0  0  0  0  0  0  0  0  0  0
   62.8228   -6.8801   -8.9913 C   0  0  0  0  0  0  0  0  0  0  0  0
   62.8632   -8.3488   -8.6894 C   0  0  0  0  0  0  0  0  0  0  0  0
   63.6534   -8.8522   -7.5180 C   0  0  0  0  0  0  0  0  0  0  0  0
   64.4032   -7.8869   -6.6485 C   0  0  0  0  0  0  0  0  0  0  0  0
   64.3627   -6.4181   -6.9504 C   0  0  0  0  0  0  0  0  0  0  0  0
   63.5725   -5.9147   -8.1219 C   0  0  0  0  0  0  0  0  0  0  0  0
  1  2  2  0  0  0
  2  3  1  0  0  0
  3 19  1  0  0  0
 19 20  1  0  0  0
 20 21  1  0  0  0
 21 22  1  0  0  0
 22 23  1  0  0  0
 23 24  1  0  0  0
 24 25  1  0  0  0
 25 26  2  0  0  0
 26 27  1  0  0  0
 27 28  2  0  0  0
 28 29  1  0  0  0
 29 30  2  0  0  0
  2  5  1  0  0  0
  5  6  2  0  0  0
  6  7  1  0  0  0
  7  8  2  0  0  0
  8  9  1  0  0  0
  9 10  2  0  0  0
  8 11  1  0  0  0
 11 12  1  0  0  0
 12 14  1  0  0  0
 14 15  1  0  0  0
 15 16  1  0  0  0
 15 17  2  0  0  0
 12 13  1  0  0  0
 22 19  1  0  0  0
 30 25  1  0  0  0
 10  5  1  0  0  0
 24 21  1  0  0  0
 13  7  1  0  0  0
  3  4  1  0  0  0
 16 18  1  0  0  0
M  END
> <minimizedAffinity>
-7.46664

> <CNNscore>
0.2684811652

> <CNNaffinity>
5.9979276657

> <CNN_VS>
1.6103305817

> <CNNaffinity_variance>
0.4803756773

$$$$
[H]c1nc(-c2c([H])c3c([H])c(Oc4c([H])nc(S(=O)(=O)C([H])([H])[H])c([H])c4[H])c(C4([H])N(C([H])([H])[H])C(=O)C([H])([H])C4([H])[H])c([H])c3n2[H])c([H])c([H])c1F


 35 39  0  0  0  0  0  0  0  0999 V2000
   51.9391   -3.4265   -7.1250 C   0  0  0  0  0  0  0  0  0  0  0  0
   52.3910   -2.9626   -8.3133 C   0  0  0  0  0  0  0  0  0  0  0  0
   53.5646   -3.4533   -8.9388 C   0  0  0  0  0  0  0  0  0  0  0  0
   54.1773   -3.1883  -10.1106 N   0  0  0  0  0  0  0  0  0  0  0  0
   55.2714   -3.9910  -10.2270 C   0  0  0  0  0  0  0  0  0  0  0  0
   55.3668   -4.7846   -9.1207 C   0  0  0  0  0  0  0  0  0  0  0  0
   54.3013   -4.4474   -8.3245 C   0  0  0  0  0  0  0  0  0  0  0  0
   53.8584   -4.9367   -7.1087 C   0  0  0  0  0  0  0  0  0  0  0  0
   52.7293   -4.4413   -6.5487 C   0  0  0  0  0  0  0  0  0  0  0  0
   53.8429   -2.4770  -10.7931 H   0  0  0  0  0  0  0  0  0  0  0  0
   48.9542   -3.4115   -8.4835 C   0  0  0  0  0  0  0  0  0  0  0  0
   49.4459   -3.2027   -7.1774 N   0  0  0  0  0  0  0  0  0  0  0  0
   50.7115   -3.1409   -6.4715 C   0  0  0  0  0  0  0  0  0  0  0  0
   50.5268   -1.6412   -6.0629 C   0  0  0  0  0  0  0  0  0  0  0  0
   49.2853   -1.9120   -5.1637 C   0  0  0  0  0  0  0  0  0  0  0  0
   48.5143   -2.8288   -6.0832 C   0  0  0  0  0  0  0  0  0  0  0  0
   47.3356   -3.1861   -5.9389 O   0  0  0  0  0  0  0  0  0  0  0  0
   56.1434   -4.0470  -11.4093 C   0  0  0  0  0  0  0  0  0  0  0  0
   57.4844   -4.2668  -11.2579 C   0  0  0  0  0  0  0  0  0  0  0  0
   58.2522   -4.2557  -12.4417 C   0  0  0  0  0  0  0  0  0  0  0  0
   57.6452   -4.0279  -13.6366 C   0  0  0  0  0  0  0  0  0  0  0  0
   58.4270   -4.0082  -14.7746 F   0  0  0  0  0  0  0  0  0  0  0  0
   56.3074   -3.8095  -13.7613 C   0  0  0  0  0  0  0  0  0  0  0  0
   55.5813   -3.8275  -12.5977 N   0  0  0  0  0  0  0  0  0  0  0  0
   52.3162   -4.9322   -5.3385 O   0  0  0  0  0  0  0  0  0  0  0  0
   50.9986   -4.8645   -4.9157 C   0  0  0  0  0  0  0  0  0  0  0  0
   49.9718   -5.5021   -5.5776 C   0  0  0  0  0  0  0  0  0  0  0  0
   48.6965   -5.3932   -5.1063 C   0  0  0  0  0  0  0  0  0  0  0  0
   48.4390   -4.6442   -3.9640 C   0  0  0  0  0  0  0  0  0  0  0  0
   49.4552   -4.0368   -3.3442 N   0  0  0  0  0  0  0  0  0  0  0  0
   50.7266   -4.1144   -3.7707 C   0  0  0  0  0  0  0  0  0  0  0  0
   46.8002   -4.5260   -3.3627 S   0  0  0  0  0  0  0  0  0  0  0  0
   46.7323   -4.9496   -1.6423 C   0  0  0  0  0  0  0  0  0  0  0  0
   45.8952   -5.4939   -4.1286 O   0  0  0  0  0  0  0  0  0  0  0  0
   46.2280   -3.1644   -3.5468 O   0  0  0  0  0  0  0  0  0  0  0  0
 11 12  1  0  0  0
 12 13  1  0  0  0
 13 14  1  0  0  0
 14 15  1  0  0  0
 15 16  1  0  0  0
 16 17  2  0  0  0
 13  1  1  0  0  0
  1  2  2  0  0  0
  2  3  1  0  0  0
  3  4  1  0  0  0
  4  5  1  0  0  0
  5  6  2  0  0  0
  6  7  1  0  0  0
  7  8  1  0  0  0
  8  9  2  0  0  0
  9 25  1  0  0  0
 25 26  1  0  0  0
 26 27  2  0  0  0
 27 28  1  0  0  0
 28 29  2  0  0  0
 29 30  1  0  0  0
 30 31  2  0  0  0
 29 32  1  0  0  0
 32 33  1  0  0  0
 32 34  2  0  0  0
 32 35  2  0  0  0
  5 18  1  0  0  0
 18 19  2  0  0  0
 19 20  1  0  0  0
 20 21  2  0  0  0
 21 22  1  0  0  0
 21 23  1  0  0  0
 23 24  2  0  0  0
 16 12  1  0  0  0
  9  1  1  0  0  0
 31 26  1  0  0  0
 24 18  1  0  0  0
  7  3  2  0  0  0
  4 10  1  0  0  0
M  END
> <minimizedAffinity>
6.78788

> <CNNscore>
0.6543641090

> <CNNaffinity>
7.4398736954

> <CNN_VS>
4.8683862686

> <CNNaffinity_variance>
0.5452232957

$$$$
[H]c1nc(-c2c([H])c3c([H])c(Oc4c([H])nc(S(=O)(=O)C([H])([H])[H])c([H])c4[H])c(C4([H])N(C([H])([H])[H])C(=O)C([H])([H])C4([H])[H])c([H])c3n2[H])c([H])c([H])c1F


 35 39  0  0  0  0  0  0  0  0999 V2000
   53.4061   -4.2108   -7.5477 C   0  0  0  0  0  0  0  0  0  0  0  0
   53.6046   -3.7126   -8.7903 C   0  0  0  0  0  0  0  0  0  0  0  0
   54.8119   -3.8918   -9.5111 C   0  0  0  0  0  0  0  0  0  0  0  0
   55.2219   -3.5380  -10.7463 N   0  0  0  0  0  0  0  0  0  0  0  0
   56.4855   -4.0070  -10.9421 C   0  0  0  0  0  0  0  0  0  0  0  0
   56.8967   -4.6724   -9.8236 C   0  0  0  0  0  0  0  0  0  0  0  0
   55.8508   -4.5995   -8.9383 C   0  0  0  0  0  0  0  0  0  0  0  0
   55.6705   -5.1178   -7.6684 C   0  0  0  0  0  0  0  0  0  0  0  0
   54.4988   -4.9257   -7.0172 C   0  0  0  0  0  0  0  0  0  0  0  0
   54.6420   -2.9925  -11.4168 H   0  0  0  0  0  0  0  0  0  0  0  0
   51.2736   -6.6946   -7.3517 C   0  0  0  0  0  0  0  0  0  0  0  0
   51.3625   -5.4196   -6.7534 N   0  0  0  0  0  0  0  0  0  0  0  0
   52.2081   -4.2416   -6.7866 C   0  0  0  0  0  0  0  0  0  0  0  0
   51.0697   -3.3145   -7.3295 C   0  0  0  0  0  0  0  0  0  0  0  0
   50.1836   -3.4519   -6.0570 C   0  0  0  0  0  0  0  0  0  0  0  0
   50.2826   -4.9446   -5.8515 C   0  0  0  0  0  0  0  0  0  0  0  0
   49.5892   -5.6237   -5.0797 O   0  0  0  0  0  0  0  0  0  0  0  0
   57.2337   -3.8885  -12.2020 C   0  0  0  0  0  0  0  0  0  0  0  0
   58.6009   -3.8874  -12.1857 C   0  0  0  0  0  0  0  0  0  0  0  0
   59.2358   -3.7200  -13.4347 C   0  0  0  0  0  0  0  0  0  0  0  0
   58.4848   -3.5659  -14.5573 C   0  0  0  0  0  0  0  0  0  0  0  0
   59.1365   -3.3889  -15.7616 F   0  0  0  0  0  0  0  0  0  0  0  0
   57.1236   -3.5686  -14.5473 C   0  0  0  0  0  0  0  0  0  0  0  0
   56.5287   -3.7354  -13.3227 N   0  0  0  0  0  0  0  0  0  0  0  0
   54.3470   -5.4375   -5.7558 O   0  0  0  0  0  0  0  0  0  0  0  0
   55.4219   -5.6974   -4.9211 C   0  0  0  0  0  0  0  0  0  0  0  0
   56.2563   -6.7795   -5.0989 C   0  0  0  0  0  0  0  0  0  0  0  0
   57.2969   -6.9760   -4.2391 C   0  0  0  0  0  0  0  0  0  0  0  0
   57.5116   -6.0866   -3.1927 C   0  0  0  0  0  0  0  0  0  0  0  0
   56.6850   -5.0469   -3.0456 N   0  0  0  0  0  0  0  0  0  0  0  0
   55.6474   -4.8126   -3.8658 C   0  0  0  0  0  0  0  0  0  0  0  0
   58.8592   -6.3431   -2.1069 S   0  0  0  0  0  0  0  0  0  0  0  0
   58.4824   -7.6155   -0.9309 C   0  0  0  0  0  0  0  0  0  0  0  0
   59.1578   -5.0546   -1.3366 O   0  0  0  0  0  0  0  0  0  0  0  0
   60.1063   -6.7104   -2.8315 O   0  0  0  0  0  0  0  0  0  0  0  0
 11 12  1  0  0  0
 12 13  1  0  0  0
 13 14  1  0  0  0
 14 15  1  0  0  0
 15 16  1  0  0  0
 16 17  2  0  0  0
 13  1  1  0  0  0
  1  2  2  0  0  0
  2  3  1  0  0  0
  3  4  1  0  0  0
  4  5  1  0  0  0
  5  6  2  0  0  0
  6  7  1  0  0  0
  7  8  1  0  0  0
  8  9  2  0  0  0
  9 25  1  0  0  0
 25 26  1  0  0  0
 26 27  2  0  0  0
 27 28  1  0  0  0
 28 29  2  0  0  0
 29 30  1  0  0  0
 30 31  2  0  0  0
 29 32  1  0  0  0
 32 33  1  0  0  0
 32 34  2  0  0  0
 32 35  2  0  0  0
  5 18  1  0  0  0
 18 19  2  0  0  0
 19 20  1  0  0  0
 20 21  2  0  0  0
 21 22  1  0  0  0
 21 23  1  0  0  0
 23 24  2  0  0  0
 16 12  1  0  0  0
  9  1  1  0  0  0
 31 26  1  0  0  0
 24 18  1  0  0  0
  7  3  2  0  0  0
  4 10  1  0  0  0
M  END
> <minimizedAffinity>
-10.40162

> <CNNscore>
0.6350993514

> <CNNaffinity>
7.7672681808

> <CNN_VS>
4.9329872131

> <CNNaffinity_variance>
0.1010514870

$$$$
[H]c1nc(-c2c([H])c3c([H])c(Oc4c([H])nc(S(=O)(=O)C([H])([H])[H])c([H])c4[H])c(C4([H])N(C([H])([H])[H])C(=O)C([H])([H])C4([H])[H])c([H])c3n2[H])c([H])c([H])c1F


 35 39  0  0  0  0  0  0  0  0999 V2000
   58.9125   -4.1305  -11.9252 C   0  0  0  0  0  0  0  0  0  0  0  0
   57.6796   -3.5762  -11.8607 C   0  0  0  0  0  0  0  0  0  0  0  0
   56.7478   -3.8809  -10.8369 C   0  0  0  0  0  0  0  0  0  0  0  0
   55.5086   -3.4381  -10.5417 N   0  0  0  0  0  0  0  0  0  0  0  0
   55.0809   -4.0520   -9.4036 C   0  0  0  0  0  0  0  0  0  0  0  0
   56.0534   -4.8991   -8.9568 C   0  0  0  0  0  0  0  0  0  0  0  0
   57.0883   -4.7864   -9.8508 C   0  0  0  0  0  0  0  0  0  0  0  0
   58.3436   -5.3659   -9.8967 C   0  0  0  0  0  0  0  0  0  0  0  0
   59.2040   -5.0430  -10.8913 C   0  0  0  0  0  0  0  0  0  0  0  0
   54.9896   -2.7401  -11.1135 H   0  0  0  0  0  0  0  0  0  0  0  0
   58.6959   -3.3336  -15.0991 C   0  0  0  0  0  0  0  0  0  0  0  0
   59.7582   -3.4288  -14.1749 N   0  0  0  0  0  0  0  0  0  0  0  0
   59.9876   -3.8011  -12.7920 C   0  0  0  0  0  0  0  0  0  0  0  0
   60.9147   -5.0064  -13.1637 C   0  0  0  0  0  0  0  0  0  0  0  0
   62.0234   -4.1162  -13.7973 C   0  0  0  0  0  0  0  0  0  0  0  0
   61.1551   -3.1956  -14.6213 C   0  0  0  0  0  0  0  0  0  0  0  0
   61.5478   -2.4088  -15.4956 O   0  0  0  0  0  0  0  0  0  0  0  0
   53.8089   -3.7616   -8.7263 C   0  0  0  0  0  0  0  0  0  0  0  0
   53.3532   -4.5964   -7.7439 C   0  0  0  0  0  0  0  0  0  0  0  0
   52.1007   -4.2684   -7.1830 C   0  0  0  0  0  0  0  0  0  0  0  0
   51.4246   -3.1788   -7.6343 C   0  0  0  0  0  0  0  0  0  0  0  0
   50.1946   -2.8939   -7.0755 F   0  0  0  0  0  0  0  0  0  0  0  0
   51.8989   -2.3635   -8.6158 C   0  0  0  0  0  0  0  0  0  0  0  0
   53.1190   -2.7005   -9.1441 N   0  0  0  0  0  0  0  0  0  0  0  0
   60.4372   -5.6383  -10.9238 O   0  0  0  0  0  0  0  0  0  0  0  0
   60.8616   -6.5301   -9.9520 C   0  0  0  0  0  0  0  0  0  0  0  0
   61.3715   -6.1206   -8.7391 C   0  0  0  0  0  0  0  0  0  0  0  0
   61.7710   -7.0529   -7.8271 C   0  0  0  0  0  0  0  0  0  0  0  0
   61.6608   -8.4066   -8.1229 C   0  0  0  0  0  0  0  0  0  0  0  0
   61.1631   -8.7729   -9.3078 N   0  0  0  0  0  0  0  0  0  0  0  0
   60.7575   -7.8922  -10.2373 C   0  0  0  0  0  0  0  0  0  0  0  0
   62.1634   -9.5911   -6.9374 S   0  0  0  0  0  0  0  0  0  0  0  0
   61.0013  -10.9278   -6.8562 C   0  0  0  0  0  0  0  0  0  0  0  0
   62.2400   -8.9407   -5.5540 O   0  0  0  0  0  0  0  0  0  0  0  0
   63.5143  -10.1437   -7.2288 O   0  0  0  0  0  0  0  0  0  0  0  0
 11 12  1  0  0  0
 12 13  1  0  0  0
 13 14  1  0  0  0
 14 15  1  0  0  0
 15 16  1  0  0  0
 16 17  2  0  0  0
 13  1  1  0  0  0
  1  2  2  0  0  0
  2  3  1  0  0  0
  3  4  1  0  0  0
  4  5  1  0  0  0
  5  6  2  0  0  0
  6  7  1  0  0  0
  7  8  1  0  0  0
  8  9  2  0  0  0
  9 25  1  0  0  0
 25 26  1  0  0  0
 26 27  2  0  0  0
 27 28  1  0  0  0
 28 29  2  0  0  0
 29 30  1  0  0  0
 30 31  2  0  0  0
 29 32  1  0  0  0
 32 33  1  0  0  0
 32 34  2  0  0  0
 32 35  2  0  0  0
  5 18  1  0  0  0
 18 19  2  0  0  0
 19 20  1  0  0  0
 20 21  2  0  0  0
 21 22  1  0  0  0
 21 23  1  0  0  0
 23 24  2  0  0  0
 16 12  1  0  0  0
  9  1  1  0  0  0
 31 26  1  0  0  0
 24 18  1  0  0  0
  7  3  2  0  0  0
  4 10  1  0  0  0
M  END
> <minimizedAffinity>
-7.17602

> <CNNscore>
0.5520254374

> <CNNaffinity>
6.6640486717

> <CNN_VS>
3.6787242889

> <CNNaffinity_variance>
0.0654565692

$$$$
[H]c1nc(-c2c([H])c3c([H])c(Oc4c([H])nc(S(=O)(=O)C([H])([H])[H])c([H])c4[H])c(C4([H])N(C([H])([H])[H])C(=O)C([H])([H])C4([H])[H])c([H])c3n2[H])c([H])c([H])c1F


 35 39  0  0  0  0  0  0  0  0999 V2000
   60.0505   -5.6782  -10.0866 C   0  0  0  0  0  0  0  0  0  0  0  0
   59.1800   -5.4690   -9.0717 C   0  0  0  0  0  0  0  0  0  0  0  0
   57.8703   -4.9638   -9.2685 C   0  0  0  0  0  0  0  0  0  0  0  0
   56.8322   -4.7173   -8.4437 N   0  0  0  0  0  0  0  0  0  0  0  0
   55.7808   -4.2650   -9.1821 C   0  0  0  0  0  0  0  0  0  0  0  0
   56.1413   -4.2202  -10.4977 C   0  0  0  0  0  0  0  0  0  0  0  0
   57.4408   -4.6583  -10.5454 C   0  0  0  0  0  0  0  0  0  0  0  0
   58.3140   -4.8637  -11.5986 C   0  0  0  0  0  0  0  0  0  0  0  0
   59.5554   -5.3518  -11.3653 C   0  0  0  0  0  0  0  0  0  0  0  0
   56.8629   -4.8586   -7.4129 H   0  0  0  0  0  0  0  0  0  0  0  0
   60.6086   -8.9058   -9.9243 C   0  0  0  0  0  0  0  0  0  0  0  0
   61.4333   -7.7642  -10.0146 N   0  0  0  0  0  0  0  0  0  0  0  0
   61.3169   -6.3188  -10.0497 C   0  0  0  0  0  0  0  0  0  0  0  0
   62.1062   -6.1209   -8.7125 C   0  0  0  0  0  0  0  0  0  0  0  0
   63.4428   -6.6865   -9.2752 C   0  0  0  0  0  0  0  0  0  0  0  0
   62.9107   -7.9098   -9.9826 C   0  0  0  0  0  0  0  0  0  0  0  0
   63.5882   -8.8433  -10.4382 O   0  0  0  0  0  0  0  0  0  0  0  0
   54.4463   -3.9700   -8.6405 C   0  0  0  0  0  0  0  0  0  0  0  0
   53.8922   -4.7978   -7.7039 C   0  0  0  0  0  0  0  0  0  0  0  0
   52.5890   -4.4661   -7.2764 C   0  0  0  0  0  0  0  0  0  0  0  0
   51.9632   -3.3799   -7.8024 C   0  0  0  0  0  0  0  0  0  0  0  0
   50.6825   -3.0913   -7.3743 F   0  0  0  0  0  0  0  0  0  0  0  0
   52.5357   -2.5716   -8.7361 C   0  0  0  0  0  0  0  0  0  0  0  0
   53.8033   -2.9121   -9.1343 N   0  0  0  0  0  0  0  0  0  0  0  0
   60.4074   -5.5357  -12.4219 O   0  0  0  0  0  0  0  0  0  0  0  0
   61.2167   -4.5242  -12.9134 C   0  0  0  0  0  0  0  0  0  0  0  0
   60.7522   -3.2482  -13.1473 C   0  0  0  0  0  0  0  0  0  0  0  0
   61.6041   -2.2997  -13.6322 C   0  0  0  0  0  0  0  0  0  0  0  0
   62.9322   -2.6223  -13.8858 C   0  0  0  0  0  0  0  0  0  0  0  0
   63.3531   -3.8684  -13.6497 N   0  0  0  0  0  0  0  0  0  0  0  0
   62.5520   -4.8357  -13.1733 C   0  0  0  0  0  0  0  0  0  0  0  0
   64.0167   -1.3914  -14.4936 S   0  0  0  0  0  0  0  0  0  0  0  0
   64.1836   -1.5179  -16.2543 C   0  0  0  0  0  0  0  0  0  0  0  0
   65.4031   -1.5667  -13.8692 O   0  0  0  0  0  0  0  0  0  0  0  0
   63.5604   -0.0170  -14.1502 O   0  0  0  0  0  0  0  0  0  0  0  0
 11 12  1  0  0  0
 12 13  1  0  0  0
 13 14  1  0  0  0
 14 15  1  0  0  0
 15 16  1  0  0  0
 16 17  2  0  0  0
 13  1  1  0  0  0
  1  2  2  0  0  0
  2  3  1  0  0  0
  3  4  1  0  0  0
  4  5  1  0  0  0
  5  6  2  0  0  0
  6  7  1  0  0  0
  7  8  1  0  0  0
  8  9  2  0  0  0
  9 25  1  0  0  0
 25 26  1  0  0  0
 26 27  2  0  0  0
 27 28  1  0  0  0
 28 29  2  0  0  0
 29 30  1  0  0  0
 30 31  2  0  0  0
 29 32  1  0  0  0
 32 33  1  0  0  0
 32 34  2  0  0  0
 32 35  2  0  0  0
  5 18  1  0  0  0
 18 19  2  0  0  0
 19 20  1  0  0  0
 20 21  2  0  0  0
 21 22  1  0  0  0
 21 23  1  0  0  0
 23 24  2  0  0  0
 16 12  1  0  0  0
  9  1  1  0  0  0
 31 26  1  0  0  0
 24 18  1  0  0  0
  7  3  2  0  0  0
  4 10  1  0  0  0
M  END
> <minimizedAffinity>
-4.82167

> <CNNscore>
0.4725022316

> <CNNaffinity>
6.3727350235

> <CNN_VS>
3.0111315250

> <CNNaffinity_variance>
0.1820812225

$$$$
[H]c1nc(-c2c([H])c3c([H])c(Oc4c([H])nc(S(=O)(=O)C([H])([H])[H])c([H])c4[H])c(C4([H])N(C([H])([H])[H])C(=O)C([H])([H])C4([H])[H])c([H])c3n2[H])c([H])c([H])c1F


 35 39  0  0  0  0  0  0  0  0999 V2000
   58.3936   -4.0999  -12.5880 C   0  0  0  0  0  0  0  0  0  0  0  0
   58.5218   -4.1611  -11.2421 C   0  0  0  0  0  0  0  0  0  0  0  0
   57.4226   -4.3594  -10.3693 C   0  0  0  0  0  0  0  0  0  0  0  0
   57.3059   -4.4959   -9.0326 N   0  0  0  0  0  0  0  0  0  0  0  0
   55.9961   -4.7061   -8.7240 C   0  0  0  0  0  0  0  0  0  0  0  0
   55.2581   -4.7076   -9.8722 C   0  0  0  0  0  0  0  0  0  0  0  0
   56.1510   -4.4941  -10.8920 C   0  0  0  0  0  0  0  0  0  0  0  0
   55.9960   -4.4344  -12.2654 C   0  0  0  0  0  0  0  0  0  0  0  0
   57.0746   -4.2471  -13.0624 C   0  0  0  0  0  0  0  0  0  0  0  0
   58.1077   -4.4420   -8.3711 H   0  0  0  0  0  0  0  0  0  0  0  0
   61.3807   -5.4350  -12.3638 C   0  0  0  0  0  0  0  0  0  0  0  0
   60.6877   -4.7281  -13.3696 N   0  0  0  0  0  0  0  0  0  0  0  0
   59.4141   -4.0649  -13.5744 C   0  0  0  0  0  0  0  0  0  0  0  0
   60.0654   -2.6572  -13.7855 C   0  0  0  0  0  0  0  0  0  0  0  0
   60.8122   -3.0630  -15.0896 C   0  0  0  0  0  0  0  0  0  0  0  0
   61.3672   -4.3960  -14.6475 C   0  0  0  0  0  0  0  0  0  0  0  0
   62.2232   -5.0656  -15.2448 O   0  0  0  0  0  0  0  0  0  0  0  0
   55.4915   -4.9825   -7.3712 C   0  0  0  0  0  0  0  0  0  0  0  0
   56.0430   -4.3456   -6.2943 C   0  0  0  0  0  0  0  0  0  0  0  0
   55.5309   -4.7080   -5.0303 C   0  0  0  0  0  0  0  0  0  0  0  0
   54.5512   -5.6464   -4.9439 C   0  0  0  0  0  0  0  0  0  0  0  0
   54.0824   -5.9898   -3.6913 F   0  0  0  0  0  0  0  0  0  0  0  0
   54.0192   -6.2683   -6.0317 C   0  0  0  0  0  0  0  0  0  0  0  0
   54.5307   -5.8981   -7.2494 N   0  0  0  0  0  0  0  0  0  0  0  0
   56.8959   -4.1791  -14.4187 O   0  0  0  0  0  0  0  0  0  0  0  0
   55.9692   -3.3344  -15.0083 C   0  0  0  0  0  0  0  0  0  0  0  0
   55.8410   -3.2096  -16.3746 C   0  0  0  0  0  0  0  0  0  0  0  0
   54.9069   -2.3587  -16.8884 C   0  0  0  0  0  0  0  0  0  0  0  0
   54.0904   -1.6253  -16.0353 C   0  0  0  0  0  0  0  0  0  0  0  0
   54.2389   -1.7672  -14.7149 N   0  0  0  0  0  0  0  0  0  0  0  0
   55.1443   -2.5915  -14.1626 C   0  0  0  0  0  0  0  0  0  0  0  0
   52.8867   -0.5491  -16.7090 S   0  0  0  0  0  0  0  0  0  0  0  0
   51.6868   -1.4590  -17.6449 C   0  0  0  0  0  0  0  0  0  0  0  0
   53.5576    0.4590  -17.6452 O   0  0  0  0  0  0  0  0  0  0  0  0
   52.1836    0.2389  -15.6603 O   0  0  0  0  0  0  0  0  0  0  0  0
 11 12  1  0  0  0
 12 13  1  0  0  0
 13 14  1  0  0  0
 14 15  1  0  0  0
 15 16  1  0  0  0
 16 17  2  0  0  0
 13  1  1  0  0  0
  1  2  2  0  0  0
  2  3  1  0  0  0
  3  4  1  0  0  0
  4  5  1  0  0  0
  5  6  2  0  0  0
  6  7  1  0  0  0
  7  8  1  0  0  0
  8  9  2  0  0  0
  9 25  1  0  0  0
 25 26  1  0  0  0
 26 27  2  0  0  0
 27 28  1  0  0  0
 28 29  2  0  0  0
 29 30  1  0  0  0
 30 31  2  0  0  0
 29 32  1  0  0  0
 32 33  1  0  0  0
 32 34  2  0  0  0
 32 35  2  0  0  0
  5 18  1  0  0  0
 18 19  2  0  0  0
 19 20  1  0  0  0
 20 21  2  0  0  0
 21 22  1  0  0  0
 21 23  1  0  0  0
 23 24  2  0  0  0
 16 12  1  0  0  0
  9  1  1  0  0  0
 31 26  1  0  0  0
 24 18  1  0  0  0
  7  3  2  0  0  0
  4 10  1  0  0  0
M  END
> <minimizedAffinity>
2.57245

> <CNNscore>
0.4723823667

> <CNNaffinity>
6.4143095016

> <CNN_VS>
3.0300066471

> <CNNaffinity_variance>
0.2263552696

$$$$
[H]c1nc(-c2c([H])c3c([H])c(Oc4c([H])nc(S(=O)(=O)C([H])([H])[H])c([H])c4[H])c(C4([H])N(C([H])([H])[H])C(=O)C([H])([H])C4([H])[H])c([H])c3n2[H])c([H])c([H])c1F


 35 39  0  0  0  0  0  0  0  0999 V2000
   58.3847   -5.4454   -8.5748 C   0  0  0  0  0  0  0  0  0  0  0  0
   57.5255   -5.8576   -7.6139 C   0  0  0  0  0  0  0  0  0  0  0  0
   56.1812   -5.4145   -7.5372 C   0  0  0  0  0  0  0  0  0  0  0  0
   55.1480   -5.7068   -6.7213 N   0  0  0  0  0  0  0  0  0  0  0  0
   54.0527   -5.0079   -7.1298 C   0  0  0  0  0  0  0  0  0  0  0  0
   54.3797   -4.2573   -8.2219 C   0  0  0  0  0  0  0  0  0  0  0  0
   55.7038   -4.5163   -8.4719 C   0  0  0  0  0  0  0  0  0  0  0  0
   56.5646   -4.0808   -9.4634 C   0  0  0  0  0  0  0  0  0  0  0  0
   57.8404   -4.5331   -9.5010 C   0  0  0  0  0  0  0  0  0  0  0  0
   55.2112   -6.3639   -5.9165 H   0  0  0  0  0  0  0  0  0  0  0  0
   59.1856   -7.8102  -10.7012 C   0  0  0  0  0  0  0  0  0  0  0  0
   59.9202   -6.9544   -9.8529 N   0  0  0  0  0  0  0  0  0  0  0  0
   59.6910   -5.9230   -8.8592 C   0  0  0  0  0  0  0  0  0  0  0  0
   60.3468   -6.7490   -7.7024 C   0  0  0  0  0  0  0  0  0  0  0  0
   61.7671   -6.7440   -8.3393 C   0  0  0  0  0  0  0  0  0  0  0  0
   61.3966   -7.0849   -9.7630 C   0  0  0  0  0  0  0  0  0  0  0  0
   62.1831   -7.4101  -10.6650 O   0  0  0  0  0  0  0  0  0  0  0  0
   52.7142   -5.1311   -6.5343 C   0  0  0  0  0  0  0  0  0  0  0  0
   52.4014   -6.2285   -5.7810 C   0  0  0  0  0  0  0  0  0  0  0  0
   51.0798   -6.2874   -5.2900 C   0  0  0  0  0  0  0  0  0  0  0  0
   50.2064   -5.2881   -5.5842 C   0  0  0  0  0  0  0  0  0  0  0  0
   48.9162   -5.3832   -5.1015 F   0  0  0  0  0  0  0  0  0  0  0  0
   50.5416   -4.2058   -6.3387 C   0  0  0  0  0  0  0  0  0  0  0  0
   51.8319   -4.1690   -6.8027 N   0  0  0  0  0  0  0  0  0  0  0  0
   58.6786   -4.0790  -10.4846 O   0  0  0  0  0  0  0  0  0  0  0  0
   58.2647   -3.9007  -11.7948 C   0  0  0  0  0  0  0  0  0  0  0  0
   56.9613   -3.6033  -12.1286 C   0  0  0  0  0  0  0  0  0  0  0  0
   56.6221   -3.4407  -13.4397 C   0  0  0  0  0  0  0  0  0  0  0  0
   57.5890   -3.5733  -14.4296 C   0  0  0  0  0  0  0  0  0  0  0  0
   58.8445   -3.8629  -14.0749 N   0  0  0  0  0  0  0  0  0  0  0  0
   59.2257   -4.0325  -12.7981 C   0  0  0  0  0  0  0  0  0  0  0  0
   57.1423   -3.3472  -16.1060 S   0  0  0  0  0  0  0  0  0  0  0  0
   58.4373   -2.5231  -16.9934 C   0  0  0  0  0  0  0  0  0  0  0  0
   55.8800   -2.4862  -16.1952 O   0  0  0  0  0  0  0  0  0  0  0  0
   56.8347   -4.6343  -16.7870 O   0  0  0  0  0  0  0  0  0  0  0  0
 11 12  1  0  0  0
 12 13  1  0  0  0
 13 14  1  0  0  0
 14 15  1  0  0  0
 15 16  1  0  0  0
 16 17  2  0  0  0
 13  1  1  0  0  0
  1  2  2  0  0  0
  2  3  1  0  0  0
  3  4  1  0  0  0
  4  5  1  0  0  0
  5  6  2  0  0  0
  6  7  1  0  0  0
  7  8  1  0  0  0
  8  9  2  0  0  0
  9 25  1  0  0  0
 25 26  1  0  0  0
 26 27  2  0  0  0
 27 28  1  0  0  0
 28 29  2  0  0  0
 29 30  1  0  0  0
 30 31  2  0  0  0
 29 32  1  0  0  0
 32 33  1  0  0  0
 32 34  2  0  0  0
 32 35  2  0  0  0
  5 18  1  0  0  0
 18 19  2  0  0  0
 19 20  1  0  0  0
 20 21  2  0  0  0
 21 22  1  0  0  0
 21 23  1  0  0  0
 23 24  2  0  0  0
 16 12  1  0  0  0
  9  1  1  0  0  0
 31 26  1  0  0  0
 24 18  1  0  0  0
  7  3  2  0  0  0
  4 10  1  0  0  0
M  END
> <minimizedAffinity>
-3.88348

> <CNNscore>
0.3953344822

> <CNNaffinity>
6.8346838951

> <CNN_VS>
2.7019863129

> <CNNaffinity_variance>
0.2163370848

$$$$
[H]c1nc(-c2c([H])c3c([H])c(Oc4c([H])nc(S(=O)(=O)C([H])([H])[H])c([H])c4[H])c(C4([H])N(C([H])([H])[H])C(=O)C([H])([H])C4([H])[H])c([H])c3n2[H])c([H])c([H])c1F


 35 39  0  0  0  0  0  0  0  0999 V2000
   53.4741   -4.5840   -7.8558 C   0  0  0  0  0  0  0  0  0  0  0  0
   53.7140   -3.9996   -9.0527 C   0  0  0  0  0  0  0  0  0  0  0  0
   54.9649   -4.0788   -9.7147 C   0  0  0  0  0  0  0  0  0  0  0  0
   55.4222   -3.6295  -10.9011 N   0  0  0  0  0  0  0  0  0  0  0  0
   56.7154   -4.0286  -11.0545 C   0  0  0  0  0  0  0  0  0  0  0  0
   57.0982   -4.7448   -9.9575 C   0  0  0  0  0  0  0  0  0  0  0  0
   56.0047   -4.7748   -9.1291 C   0  0  0  0  0  0  0  0  0  0  0  0
   55.7825   -5.3802   -7.9053 C   0  0  0  0  0  0  0  0  0  0  0  0
   54.5701   -5.2820   -7.3099 C   0  0  0  0  0  0  0  0  0  0  0  0
   54.8532   -3.0687  -11.5684 H   0  0  0  0  0  0  0  0  0  0  0  0
   51.1085   -2.3247   -7.6229 C   0  0  0  0  0  0  0  0  0  0  0  0
   51.2549   -3.6521   -7.1668 N   0  0  0  0  0  0  0  0  0  0  0  0
   52.2404   -4.7162   -7.1659 C   0  0  0  0  0  0  0  0  0  0  0  0
   52.3676   -4.7356   -5.6058 C   0  0  0  0  0  0  0  0  0  0  0  0
   50.9002   -5.1986   -5.3699 C   0  0  0  0  0  0  0  0  0  0  0  0
   50.1952   -4.2724   -6.3317 C   0  0  0  0  0  0  0  0  0  0  0  0
   48.9720   -4.0784   -6.3958 O   0  0  0  0  0  0  0  0  0  0  0  0
   57.5226   -3.7972  -12.2612 C   0  0  0  0  0  0  0  0  0  0  0  0
   56.9084   -3.6388  -13.4725 C   0  0  0  0  0  0  0  0  0  0  0  0
   57.7622   -3.4708  -14.5834 C   0  0  0  0  0  0  0  0  0  0  0  0
   59.1098   -3.4807  -14.4053 C   0  0  0  0  0  0  0  0  0  0  0  0
   59.9177   -3.3291  -15.5147 F   0  0  0  0  0  0  0  0  0  0  0  0
   59.6978   -3.6422  -13.1883 C   0  0  0  0  0  0  0  0  0  0  0  0
   58.8482   -3.8011  -12.1232 N   0  0  0  0  0  0  0  0  0  0  0  0
   54.3765   -5.8793   -6.0925 O   0  0  0  0  0  0  0  0  0  0  0  0
   55.3726   -5.9585   -5.1328 C   0  0  0  0  0  0  0  0  0  0  0  0
   55.6475   -4.9282   -4.2600 C   0  0  0  0  0  0  0  0  0  0  0  0
   56.6430   -5.0733   -3.3389 C   0  0  0  0  0  0  0  0  0  0  0  0
   57.3720   -6.2555   -3.2835 C   0  0  0  0  0  0  0  0  0  0  0  0
   57.0827   -7.2365   -4.1436 N   0  0  0  0  0  0  0  0  0  0  0  0
   56.1128   -7.1398   -5.0677 C   0  0  0  0  0  0  0  0  0  0  0  0
   58.6360   -6.4328   -2.0869 S   0  0  0  0  0  0  0  0  0  0  0  0
   58.6149   -5.0742   -0.9478 C   0  0  0  0  0  0  0  0  0  0  0  0
   60.0028   -6.4570   -2.7754 O   0  0  0  0  0  0  0  0  0  0  0  0
   58.5161   -7.7044   -1.3229 O   0  0  0  0  0  0  0  0  0  0  0  0
 11 12  1  0  0  0
 12 13  1  0  0  0
 13 14  1  0  0  0
 14 15  1  0  0  0
 15 16  1  0  0  0
 16 17  2  0  0  0
 13  1  1  0  0  0
  1  2  2  0  0  0
  2  3  1  0  0  0
  3  4  1  0  0  0
  4  5  1  0  0  0
  5  6  2  0  0  0
  6  7  1  0  0  0
  7  8  1  0  0  0
  8  9  2  0  0  0
  9 25  1  0  0  0
 25 26  1  0  0  0
 26 27  2  0  0  0
 27 28  1  0  0  0
 28 29  2  0  0  0
 29 30  1  0  0  0
 30 31  2  0  0  0
 29 32  1  0  0  0
 32 33  1  0  0  0
 32 34  2  0  0  0
 32 35  2  0  0  0
  5 18  1  0  0  0
 18 19  2  0  0  0
 19 20  1  0  0  0
 20 21  2  0  0  0
 21 22  1  0  0  0
 21 23  1  0  0  0
 23 24  2  0  0  0
 16 12  1  0  0  0
  9  1  1  0  0  0
 31 26  1  0  0  0
 24 18  1  0  0  0
  7  3  2  0  0  0
  4 10  1  0  0  0
M  END
> <minimizedAffinity>
-9.06265

> <CNNscore>
0.3755742610

> <CNNaffinity>
7.3432402611

> <CNN_VS>
2.7579319477

> <CNNaffinity_variance>
0.0513249040

$$$$
[H]c1nc(-c2c([H])c3c([H])c(Oc4c([H])nc(S(=O)(=O)C([H])([H])[H])c([H])c4[H])c(C4([H])N(C([H])([H])[H])C(=O)C([H])([H])C4([H])[H])c([H])c3n2[H])c([H])c([H])c1F


 35 39  0  0  0  0  0  0  0  0999 V2000
   54.3715   -6.7982   -6.0575 C   0  0  0  0  0  0  0  0  0  0  0  0
   54.8189   -7.6568   -5.1119 C   0  0  0  0  0  0  0  0  0  0  0  0
   56.1439   -7.6306   -4.6089 C   0  0  0  0  0  0  0  0  0  0  0  0
   56.7956   -8.3346   -3.6610 N   0  0  0  0  0  0  0  0  0  0  0  0
   58.0681   -7.8603   -3.5569 C   0  0  0  0  0  0  0  0  0  0  0  0
   58.2411   -6.8381   -4.4447 C   0  0  0  0  0  0  0  0  0  0  0  0
   57.0405   -6.6984   -5.0941 C   0  0  0  0  0  0  0  0  0  0  0  0
   56.6052   -5.8105   -6.0616 C   0  0  0  0  0  0  0  0  0  0  0  0
   55.3292   -5.8688   -6.5112 C   0  0  0  0  0  0  0  0  0  0  0  0
   56.3667   -9.1109   -3.1162 H   0  0  0  0  0  0  0  0  0  0  0  0
   51.6120   -7.0858   -4.3090 C   0  0  0  0  0  0  0  0  0  0  0  0
   51.9031   -6.7333   -5.6441 N   0  0  0  0  0  0  0  0  0  0  0  0
   53.0455   -6.6126   -6.5295 C   0  0  0  0  0  0  0  0  0  0  0  0
   52.5396   -7.7307   -7.5013 C   0  0  0  0  0  0  0  0  0  0  0  0
   51.2752   -6.9403   -7.9483 C   0  0  0  0  0  0  0  0  0  0  0  0
   50.7988   -6.4596   -6.5984 C   0  0  0  0  0  0  0  0  0  0  0  0
   49.6984   -5.9430   -6.3531 O   0  0  0  0  0  0  0  0  0  0  0  0
   59.0538   -8.3249   -2.5700 C   0  0  0  0  0  0  0  0  0  0  0  0
   59.1788   -7.6754   -1.3733 C   0  0  0  0  0  0  0  0  0  0  0  0
   60.1829   -8.1585   -0.5076 C   0  0  0  0  0  0  0  0  0  0  0  0
   60.9577   -9.2070   -0.8927 C   0  0  0  0  0  0  0  0  0  0  0  0
   61.9416   -9.6458   -0.0290 F   0  0  0  0  0  0  0  0  0  0  0  0
   60.8149   -9.8362   -2.0913 C   0  0  0  0  0  0  0  0  0  0  0  0
   59.8312   -9.3510   -2.9149 N   0  0  0  0  0  0  0  0  0  0  0  0
   54.9236   -4.9877   -7.4783 O   0  0  0  0  0  0  0  0  0  0  0  0
   53.7186   -4.3072   -7.4104 C   0  0  0  0  0  0  0  0  0  0  0  0
   52.9915   -4.1975   -6.2450 C   0  0  0  0  0  0  0  0  0  0  0  0
   51.8120   -3.5125   -6.2490 C   0  0  0  0  0  0  0  0  0  0  0  0
   51.3511   -2.9287   -7.4233 C   0  0  0  0  0  0  0  0  0  0  0  0
   52.0779   -3.0528   -8.5378 N   0  0  0  0  0  0  0  0  0  0  0  0
   53.2442   -3.7176   -8.5830 C   0  0  0  0  0  0  0  0  0  0  0  0
   49.8438   -2.0405   -7.4097 S   0  0  0  0  0  0  0  0  0  0  0  0
   48.5787   -2.9409   -8.2657 C   0  0  0  0  0  0  0  0  0  0  0  0
   50.0289   -0.6932   -8.1120 O   0  0  0  0  0  0  0  0  0  0  0  0
   49.3747   -1.7452   -6.0285 O   0  0  0  0  0  0  0  0  0  0  0  0
 11 12  1  0  0  0
 12 13  1  0  0  0
 13 14  1  0  0  0
 14 15  1  0  0  0
 15 16  1  0  0  0
 16 17  2  0  0  0
 13  1  1  0  0  0
  1  2  2  0  0  0
  2  3  1  0  0  0
  3  4  1  0  0  0
  4  5  1  0  0  0
  5  6  2  0  0  0
  6  7  1  0  0  0
  7  8  1  0  0  0
  8  9  2  0  0  0
  9 25  1  0  0  0
 25 26  1  0  0  0
 26 27  2  0  0  0
 27 28  1  0  0  0
 28 29  2  0  0  0
 29 30  1  0  0  0
 30 31  2  0  0  0
 29 32  1  0  0  0
 32 33  1  0  0  0
 32 34  2  0  0  0
 32 35  2  0  0  0
  5 18  1  0  0  0
 18 19  2  0  0  0
 19 20  1  0  0  0
 20 21  2  0  0  0
 21 22  1  0  0  0
 21 23  1  0  0  0
 23 24  2  0  0  0
 16 12  1  0  0  0
  9  1  1  0  0  0
 31 26  1  0  0  0
 24 18  1  0  0  0
  7  3  2  0  0  0
  4 10  1  0  0  0
M  END
> <minimizedAffinity>
1.71308

> <CNNscore>
0.3656055927

> <CNNaffinity>
6.7974677086

> <CNN_VS>
2.4851922989

> <CNNaffinity_variance>
0.9627994299

$$$$
[H]c1nc(-c2c([H])c3c([H])c(Oc4c([H])nc(S(=O)(=O)C([H])([H])[H])c([H])c4[H])c(C4([H])N(C([H])([H])[H])C(=O)C([H])([H])C4([H])[H])c([H])c3n2[H])c([H])c([H])c1F


 35 39  0  0  0  0  0  0  0  0999 V2000
   62.9915   -9.7428   -5.2517 C   0  0  0  0  0  0  0  0  0  0  0  0
   63.8203   -9.3800   -6.2582 C   0  0  0  0  0  0  0  0  0  0  0  0
   63.3651   -8.7592   -7.4485 C   0  0  0  0  0  0  0  0  0  0  0  0
   63.9851   -8.2786   -8.5455 N   0  0  0  0  0  0  0  0  0  0  0  0
   63.0515   -7.7431   -9.3801 C   0  0  0  0  0  0  0  0  0  0  0  0
   61.8154   -7.8767   -8.8170 C   0  0  0  0  0  0  0  0  0  0  0  0
   62.0172   -8.5069   -7.6149 C   0  0  0  0  0  0  0  0  0  0  0  0
   61.1511   -8.8696   -6.5990 C   0  0  0  0  0  0  0  0  0  0  0  0
   61.6297   -9.4573   -5.4768 C   0  0  0  0  0  0  0  0  0  0  0  0
   65.0134   -8.3268   -8.6996 H   0  0  0  0  0  0  0  0  0  0  0  0
   63.5631   -7.9275   -2.5809 C   0  0  0  0  0  0  0  0  0  0  0  0
   63.5202   -9.3136   -2.8424 N   0  0  0  0  0  0  0  0  0  0  0  0
   63.3259  -10.2207   -3.9574 C   0  0  0  0  0  0  0  0  0  0  0  0
   64.7622  -10.8324   -3.8421 C   0  0  0  0  0  0  0  0  0  0  0  0
   64.5164  -11.4560   -2.4371 C   0  0  0  0  0  0  0  0  0  0  0  0
   63.8420  -10.2838   -1.7653 C   0  0  0  0  0  0  0  0  0  0  0  0
   63.6127  -10.1696   -0.5519 O   0  0  0  0  0  0  0  0  0  0  0  0
   63.3578   -7.0487  -10.6391 C   0  0  0  0  0  0  0  0  0  0  0  0
   64.5636   -6.4236  -10.7972 C   0  0  0  0  0  0  0  0  0  0  0  0
   64.7528   -5.7408  -12.0175 C   0  0  0  0  0  0  0  0  0  0  0  0
   63.7592   -5.7306  -12.9452 C   0  0  0  0  0  0  0  0  0  0  0  0
   63.9700   -5.0405  -14.1225 F   0  0  0  0  0  0  0  0  0  0  0  0
   62.5657   -6.3595  -12.7634 C   0  0  0  0  0  0  0  0  0  0  0  0
   62.4055   -7.0185  -11.5711 N   0  0  0  0  0  0  0  0  0  0  0  0
   60.7523   -9.8190   -4.4892 O   0  0  0  0  0  0  0  0  0  0  0  0
   59.9560   -8.9004   -3.8247 C   0  0  0  0  0  0  0  0  0  0  0  0
   59.4113   -7.7996   -4.4495 C   0  0  0  0  0  0  0  0  0  0  0  0
   58.6357   -6.9346   -3.7348 C   0  0  0  0  0  0  0  0  0  0  0  0
   58.3975   -7.1669   -2.3852 C   0  0  0  0  0  0  0  0  0  0  0  0
   58.9401   -8.2426   -1.8069 N   0  0  0  0  0  0  0  0  0  0  0  0
   59.7104   -9.1216   -2.4688 C   0  0  0  0  0  0  0  0  0  0  0  0
   57.3886   -6.0567   -1.4849 S   0  0  0  0  0  0  0  0  0  0  0  0
   55.6734   -6.4449   -1.7116 C   0  0  0  0  0  0  0  0  0  0  0  0
   57.6232   -4.6265   -1.9769 O   0  0  0  0  0  0  0  0  0  0  0  0
   57.6968   -6.0673   -0.0289 O   0  0  0  0  0  0  0  0  0  0  0  0
 11 12  1  0  0  0
 12 13  1  0  0  0
 13 14  1  0  0  0
 14 15  1  0  0  0
 15 16  1  0  0  0
 16 17  2  0  0  0
 13  1  1  0  0  0
  1  2  2  0  0  0
  2  3  1  0  0  0
  3  4  1  0  0  0
  4  5  1  0  0  0
  5  6  2  0  0  0
  6  7  1  0  0  0
  7  8  1  0  0  0
  8  9  2  0  0  0
  9 25  1  0  0  0
 25 26  1  0  0  0
 26 27  2  0  0  0
 27 28  1  0  0  0
 28 29  2  0  0  0
 29 30  1  0  0  0
 30 31  2  0  0  0
 29 32  1  0  0  0
 32 33  1  0  0  0
 32 34  2  0  0  0
 32 35  2  0  0  0
  5 18  1  0  0  0
 18 19  2  0  0  0
 19 20  1  0  0  0
 20 21  2  0  0  0
 21 22  1  0  0  0
 21 23  1  0  0  0
 23 24  2  0  0  0
 16 12  1  0  0  0
  9  1  1  0  0  0
 31 26  1  0  0  0
 24 18  1  0  0  0
  7  3  2  0  0  0
  4 10  1  0  0  0
M  END
> <minimizedAffinity>
-2.93322

> <CNNscore>
0.3637613654

> <CNNaffinity>
5.9062552452

> <CNN_VS>
2.1484675407

> <CNNaffinity_variance>
1.0101801157

$$$$
[H]c1nc([H])c2c([H])c(OC([H])([H])[H])c(OC([H])([H])[H])c([H])c2c1Oc1c([H])c([H])c(N([H])C(=O)c2c([H])n(C([H])([H])c3c([H])c([H])c([H])c([H])c3[H])c(=O)n(C3([H])C([H])([H])C3([H])[H])c2=O)c([H])c1[H]


 43 48  0  0  0  0  0  0  0  0999 V2000
   54.9112   -4.2934  -10.2582 N   0  0  0  0  0  0  0  0  0  0  0  0
   55.1043   -4.6907   -8.9523 C   0  0  0  0  0  0  0  0  0  0  0  0
   56.2959   -4.9804   -8.5648 O   0  0  0  0  0  0  0  0  0  0  0  0
   53.9070   -4.0879  -10.5524 H   0  0  0  0  0  0  0  0  0  0  0  0
   54.0673   -4.8251   -7.9341 C   0  0  0  0  0  0  0  0  0  0  0  0
   54.3448   -5.6717   -6.8348 C   0  0  0  0  0  0  0  0  0  0  0  0
   53.3922   -5.8316   -5.9188 N   0  0  0  0  0  0  0  0  0  0  0  0
   52.2159   -5.2304   -6.0089 C   0  0  0  0  0  0  0  0  0  0  0  0
   51.3490   -5.4308   -5.0941 O   0  0  0  0  0  0  0  0  0  0  0  0
   51.8713   -4.4081   -7.0219 N   0  0  0  0  0  0  0  0  0  0  0  0
   52.8446   -4.2299   -7.9800 C   0  0  0  0  0  0  0  0  0  0  0  0
   52.5366   -3.4755   -8.9093 O   0  0  0  0  0  0  0  0  0  0  0  0
   50.5853   -3.7762   -7.0837 C   0  0  0  0  0  0  0  0  0  0  0  0
   50.3693   -2.3223   -7.1023 C   0  0  0  0  0  0  0  0  0  0  0  0
   49.8845   -3.1899   -5.9329 C   0  0  0  0  0  0  0  0  0  0  0  0
   53.6976   -6.7031   -4.7879 C   0  0  0  0  0  0  0  0  0  0  0  0
   54.8531   -6.2032   -4.0081 C   0  0  0  0  0  0  0  0  0  0  0  0
   55.6583   -7.0924   -3.2999 C   0  0  0  0  0  0  0  0  0  0  0  0
   56.7338   -6.6648   -2.5558 C   0  0  0  0  0  0  0  0  0  0  0  0
   57.0750   -5.3168   -2.4710 C   0  0  0  0  0  0  0  0  0  0  0  0
   56.2854   -4.4328   -3.1667 C   0  0  0  0  0  0  0  0  0  0  0  0
   55.1983   -4.8653   -3.9190 C   0  0  0  0  0  0  0  0  0  0  0  0
   57.9537   -3.7166  -13.2001 C   0  0  0  0  0  0  0  0  0  0  0  0
   56.7101   -4.1758  -13.5523 C   0  0  0  0  0  0  0  0  0  0  0  0
   55.6800   -4.3896  -12.6227 C   0  0  0  0  0  0  0  0  0  0  0  0
   55.8914   -4.1383  -11.2979 C   0  0  0  0  0  0  0  0  0  0  0  0
   57.1687   -3.6703  -10.9552 C   0  0  0  0  0  0  0  0  0  0  0  0
   58.1694   -3.4631  -11.8612 C   0  0  0  0  0  0  0  0  0  0  0  0
   58.9150   -3.5282  -14.1679 O   0  0  0  0  0  0  0  0  0  0  0  0
   62.5553   -3.1180  -17.4549 C   0  0  0  0  0  0  0  0  0  0  0  0
   63.1433   -3.6014  -16.3116 C   0  0  0  0  0  0  0  0  0  0  0  0
   62.3738   -3.8284  -15.1877 C   0  0  0  0  0  0  0  0  0  0  0  0
   62.9293   -4.3127  -14.0243 C   0  0  0  0  0  0  0  0  0  0  0  0
   62.1517   -4.5224  -12.9490 N   0  0  0  0  0  0  0  0  0  0  0  0
   60.8348   -4.2872  -12.9271 C   0  0  0  0  0  0  0  0  0  0  0  0
   60.2478   -3.8031  -14.0732 C   0  0  0  0  0  0  0  0  0  0  0  0
   61.0152   -3.5693  -15.2148 C   0  0  0  0  0  0  0  0  0  0  0  0
   60.4459   -3.0846  -16.3718 C   0  0  0  0  0  0  0  0  0  0  0  0
   61.2057   -2.8565  -17.4933 C   0  0  0  0  0  0  0  0  0  0  0  0
   64.0739   -3.9277  -19.1512 C   0  0  0  0  0  0  0  0  0  0  0  0
   63.3255   -2.8914  -18.5777 O   0  0  0  0  0  0  0  0  0  0  0  0
   60.6189   -2.3688  -18.6477 O   0  0  0  0  0  0  0  0  0  0  0  0
   60.3588   -0.9898  -18.7902 C   0  0  0  0  0  0  0  0  0  0  0  0
 40 41  1  0  0  0
 41 30  1  0  0  0
 30 31  2  0  0  0
 31 32  1  0  0  0
 32 33  2  0  0  0
 33 34  1  0  0  0
 34 35  2  0  0  0
 35 36  1  0  0  0
 36 29  1  0  0  0
 29 23  1  0  0  0
 23 24  2  0  0  0
 24 25  1  0  0  0
 25 26  2  0  0  0
 26  1  1  0  0  0
  1  2  1  0  0  0
  2  3  2  0  0  0
  2  5  1  0  0  0
  5  6  2  0  0  0
  6  7  1  0  0  0
  7 16  1  0  0  0
 16 17  1  0  0  0
 17 18  2  0  0  0
 18 19  1  0  0  0
 19 20  2  0  0  0
 20 21  1  0  0  0
 21 22  2  0  0  0
  7  8  1  0  0  0
  8  9  2  0  0  0
  8 10  1  0  0  0
 10 13  1  0  0  0
 13 14  1  0  0  0
 14 15  1  0  0  0
 10 11  1  0  0  0
 11 12  2  0  0  0
 26 27  1  0  0  0
 27 28  2  0  0  0
 36 37  2  0  0  0
 37 38  1  0  0  0
 38 39  2  0  0  0
 39 42  1  0  0  0
 42 43  1  0  0  0
 39 30  1  0  0  0
 37 32  1  0  0  0
 28 23  1  0  0  0
 11  5  1  0  0  0
 22 17  1  0  0  0
 15 13  1  0  0  0
  1  4  1  0  0  0
M  END
> <minimizedAffinity>
-7.39366

> <CNNscore>
0.4852019250

> <CNNaffinity>
7.2442221642

> <CNN_VS>
3.5149104595

> <CNNaffinity_variance>
0.8064121008

$$$$
[H]c1nc([H])c2c([H])c(OC([H])([H])[H])c(OC([H])([H])[H])c([H])c2c1Oc1c([H])c([H])c(N([H])C(=O)c2c([H])n(C([H])([H])c3c([H])c([H])c([H])c([H])c3[H])c(=O)n(C3([H])C([H])([H])C3([H])[H])c2=O)c([H])c1[H]


 43 48  0  0  0  0  0  0  0  0999 V2000
   59.4485   -3.7544  -12.8641 N   0  0  0  0  0  0  0  0  0  0  0  0
   59.3449   -3.5402  -14.2220 C   0  0  0  0  0  0  0  0  0  0  0  0
   58.1763   -3.5356  -14.7589 O   0  0  0  0  0  0  0  0  0  0  0  0
   60.4339   -3.7794  -12.4573 H   0  0  0  0  0  0  0  0  0  0  0  0
   60.4552   -3.3156  -15.1423 C   0  0  0  0  0  0  0  0  0  0  0  0
   60.2783   -3.7294  -16.4838 C   0  0  0  0  0  0  0  0  0  0  0  0
   61.2977   -3.5639  -17.3237 N   0  0  0  0  0  0  0  0  0  0  0  0
   62.4492   -3.0326  -16.9429 C   0  0  0  0  0  0  0  0  0  0  0  0
   63.3841   -2.9054  -17.8021 O   0  0  0  0  0  0  0  0  0  0  0  0
   62.6997   -2.6119  -15.6853 N   0  0  0  0  0  0  0  0  0  0  0  0
   61.6562   -2.7747  -14.8013 C   0  0  0  0  0  0  0  0  0  0  0  0
   61.8780   -2.3887  -13.6483 O   0  0  0  0  0  0  0  0  0  0  0  0
   63.9619   -2.0421  -15.3121 C   0  0  0  0  0  0  0  0  0  0  0  0
   65.2673   -2.5169  -15.7927 C   0  0  0  0  0  0  0  0  0  0  0  0
   64.8750   -2.6125  -14.3121 C   0  0  0  0  0  0  0  0  0  0  0  0
   61.0959   -3.9901  -18.7055 C   0  0  0  0  0  0  0  0  0  0  0  0
   61.1854   -5.4619  -18.8429 C   0  0  0  0  0  0  0  0  0  0  0  0
   60.0355   -6.2444  -18.7657 C   0  0  0  0  0  0  0  0  0  0  0  0
   60.0800   -7.6151  -18.8781 C   0  0  0  0  0  0  0  0  0  0  0  0
   61.2803   -8.2942  -19.0754 C   0  0  0  0  0  0  0  0  0  0  0  0
   62.4195   -7.5295  -19.1526 C   0  0  0  0  0  0  0  0  0  0  0  0
   62.3743   -6.1439  -19.0391 C   0  0  0  0  0  0  0  0  0  0  0  0
   56.4373   -4.5797   -9.9492 C   0  0  0  0  0  0  0  0  0  0  0  0
   56.1843   -3.7447  -11.0076 C   0  0  0  0  0  0  0  0  0  0  0  0
   57.1421   -3.4355  -11.9864 C   0  0  0  0  0  0  0  0  0  0  0  0
   58.3940   -3.9743  -11.9124 C   0  0  0  0  0  0  0  0  0  0  0  0
   58.6358   -4.8250  -10.8235 C   0  0  0  0  0  0  0  0  0  0  0  0
   57.7026   -5.1243   -9.8723 C   0  0  0  0  0  0  0  0  0  0  0  0
   55.4472   -4.8391   -9.0280 O   0  0  0  0  0  0  0  0  0  0  0  0
   51.9618   -5.1581   -5.5676 C   0  0  0  0  0  0  0  0  0  0  0  0
   51.5142   -4.2108   -6.4558 C   0  0  0  0  0  0  0  0  0  0  0  0
   52.2808   -3.8872   -7.5577 C   0  0  0  0  0  0  0  0  0  0  0  0
   51.8637   -2.9427   -8.4691 C   0  0  0  0  0  0  0  0  0  0  0  0
   52.6341   -2.6517   -9.5305 N   0  0  0  0  0  0  0  0  0  0  0  0
   53.8148   -3.2325   -9.7732 C   0  0  0  0  0  0  0  0  0  0  0  0
   54.2612   -4.1809   -8.8824 C   0  0  0  0  0  0  0  0  0  0  0  0
   53.4956   -4.5159   -7.7650 C   0  0  0  0  0  0  0  0  0  0  0  0
   53.9255   -5.4629   -6.8617 C   0  0  0  0  0  0  0  0  0  0  0  0
   53.1678   -5.7894   -5.7634 C   0  0  0  0  0  0  0  0  0  0  0  0
   49.8266   -5.1798   -4.4363 C   0  0  0  0  0  0  0  0  0  0  0  0
   51.1946   -5.4807   -4.4664 O   0  0  0  0  0  0  0  0  0  0  0  0
   53.6140   -6.7424   -4.8647 O   0  0  0  0  0  0  0  0  0  0  0  0
   54.9464   -7.2029   -4.9133 C   0  0  0  0  0  0  0  0  0  0  0  0
 40 41  1  0  0  0
 41 30  1  0  0  0
 30 31  2  0  0  0
 31 32  1  0  0  0
 32 33  2  0  0  0
 33 34  1  0  0  0
 34 35  2  0  0  0
 35 36  1  0  0  0
 36 29  1  0  0  0
 29 23  1  0  0  0
 23 24  2  0  0  0
 24 25  1  0  0  0
 25 26  2  0  0  0
 26  1  1  0  0  0
  1  2  1  0  0  0
  2  3  2  0  0  0
  2  5  1  0  0  0
  5  6  2  0  0  0
  6  7  1  0  0  0
  7 16  1  0  0  0
 16 17  1  0  0  0
 17 18  2  0  0  0
 18 19  1  0  0  0
 19 20  2  0  0  0
 20 21  1  0  0  0
 21 22  2  0  0  0
  7  8  1  0  0  0
  8  9  2  0  0  0
  8 10  1  0  0  0
 10 13  1  0  0  0
 13 14  1  0  0  0
 14 15  1  0  0  0
 10 11  1  0  0  0
 11 12  2  0  0  0
 26 27  1  0  0  0
 27 28  2  0  0  0
 36 37  2  0  0  0
 37 38  1  0  0  0
 38 39  2  0  0  0
 39 42  1  0  0  0
 42 43  1  0  0  0
 39 30  1  0  0  0
 37 32  1  0  0  0
 28 23  1  0  0  0
 11  5  1  0  0  0
 22 17  1  0  0  0
 15 13  1  0  0  0
  1  4  1  0  0  0
M  END
> <minimizedAffinity>
-7.98530

> <CNNscore>
0.3990286589

> <CNNaffinity>
6.7307538986

> <CNN_VS>
2.6857635975

> <CNNaffinity_variance>
0.3404316902

$$$$
[H]c1nc([H])c2c([H])c(OC([H])([H])[H])c(OC([H])([H])[H])c([H])c2c1Oc1c([H])c([H])c(N([H])C(=O)c2c([H])n(C([H])([H])c3c([H])c([H])c([H])c([H])c3[H])c(=O)n(C3([H])C([H])([H])C3([H])[H])c2=O)c([H])c1[H]


 43 48  0  0  0  0  0  0  0  0999 V2000
   54.8428   -4.5597   -9.4703 N   0  0  0  0  0  0  0  0  0  0  0  0
   54.8105   -4.5418   -8.0922 C   0  0  0  0  0  0  0  0  0  0  0  0
   55.9139   -4.3832   -7.4508 O   0  0  0  0  0  0  0  0  0  0  0  0
   53.9139   -4.7209   -9.9687 H   0  0  0  0  0  0  0  0  0  0  0  0
   53.6212   -4.6925   -7.2598 C   0  0  0  0  0  0  0  0  0  0  0  0
   53.6941   -5.6115   -6.1864 C   0  0  0  0  0  0  0  0  0  0  0  0
   52.6036   -5.7852   -5.4430 N   0  0  0  0  0  0  0  0  0  0  0  0
   51.4756   -5.1326   -5.6783 C   0  0  0  0  0  0  0  0  0  0  0  0
   50.4686   -5.3501   -4.9253 O   0  0  0  0  0  0  0  0  0  0  0  0
   51.3221   -4.2401   -6.6788 N   0  0  0  0  0  0  0  0  0  0  0  0
   52.4403   -4.0466   -7.4591 C   0  0  0  0  0  0  0  0  0  0  0  0
   52.3074   -3.2281   -8.3756 O   0  0  0  0  0  0  0  0  0  0  0  0
   50.0824   -3.5541   -6.9013 C   0  0  0  0  0  0  0  0  0  0  0  0
   49.9534   -2.1017   -7.0874 C   0  0  0  0  0  0  0  0  0  0  0  0
   49.3400   -2.8119   -5.8731 C   0  0  0  0  0  0  0  0  0  0  0  0
   52.6982   -6.7320   -4.3357 C   0  0  0  0  0  0  0  0  0  0  0  0
   53.3779   -6.1362   -3.1627 C   0  0  0  0  0  0  0  0  0  0  0  0
   52.6312   -5.5577   -2.1388 C   0  0  0  0  0  0  0  0  0  0  0  0
   53.2270   -4.9851   -1.0387 C   0  0  0  0  0  0  0  0  0  0  0  0
   54.6119   -4.9535   -0.8903 C   0  0  0  0  0  0  0  0  0  0  0  0
   55.3560   -5.5221   -1.8961 C   0  0  0  0  0  0  0  0  0  0  0  0
   54.7534   -6.1010   -3.0082 C   0  0  0  0  0  0  0  0  0  0  0  0
   58.3479   -4.2105  -11.8863 C   0  0  0  0  0  0  0  0  0  0  0  0
   57.1863   -3.5681  -12.2318 C   0  0  0  0  0  0  0  0  0  0  0  0
   56.0064   -3.6580  -11.4764 C   0  0  0  0  0  0  0  0  0  0  0  0
   55.9788   -4.4110  -10.3383 C   0  0  0  0  0  0  0  0  0  0  0  0
   57.1747   -5.0616  -10.0003 C   0  0  0  0  0  0  0  0  0  0  0  0
   58.3214   -4.9730  -10.7367 C   0  0  0  0  0  0  0  0  0  0  0  0
   59.4682   -4.0741  -12.6753 O   0  0  0  0  0  0  0  0  0  0  0  0
   63.2788   -3.1144  -15.6388 C   0  0  0  0  0  0  0  0  0  0  0  0
   62.1562   -2.9112  -16.4038 C   0  0  0  0  0  0  0  0  0  0  0  0
   60.9055   -3.1022  -15.8507 C   0  0  0  0  0  0  0  0  0  0  0  0
   59.7584   -2.9076  -16.5875 C   0  0  0  0  0  0  0  0  0  0  0  0
   58.5572   -3.1023  -16.0183 N   0  0  0  0  0  0  0  0  0  0  0  0
   58.3904   -3.4835  -14.7467 C   0  0  0  0  0  0  0  0  0  0  0  0
   59.5160   -3.6865  -13.9824 C   0  0  0  0  0  0  0  0  0  0  0  0
   60.7852   -3.4971  -14.5303 C   0  0  0  0  0  0  0  0  0  0  0  0
   61.9241   -3.6954  -13.7812 C   0  0  0  0  0  0  0  0  0  0  0  0
   63.1713   -3.5072  -14.3253 C   0  0  0  0  0  0  0  0  0  0  0  0
   64.8976   -1.6736  -16.7079 C   0  0  0  0  0  0  0  0  0  0  0  0
   64.5285   -2.9231  -16.1928 O   0  0  0  0  0  0  0  0  0  0  0  0
   64.3058   -3.7112  -13.5597 O   0  0  0  0  0  0  0  0  0  0  0  0
   64.7893   -5.0165  -13.3312 C   0  0  0  0  0  0  0  0  0  0  0  0
 40 41  1  0  0  0
 41 30  1  0  0  0
 30 31  2  0  0  0
 31 32  1  0  0  0
 32 33  2  0  0  0
 33 34  1  0  0  0
 34 35  2  0  0  0
 35 36  1  0  0  0
 36 29  1  0  0  0
 29 23  1  0  0  0
 23 24  2  0  0  0
 24 25  1  0  0  0
 25 26  2  0  0  0
 26  1  1  0  0  0
  1  2  1  0  0  0
  2  3  2  0  0  0
  2  5  1  0  0  0
  5  6  2  0  0  0
  6  7  1  0  0  0
  7 16  1  0  0  0
 16 17  1  0  0  0
 17 18  2  0  0  0
 18 19  1  0  0  0
 19 20  2  0  0  0
 20 21  1  0  0  0
 21 22  2  0  0  0
  7  8  1  0  0  0
  8  9  2  0  0  0
  8 10  1  0  0  0
 10 13  1  0  0  0
 13 14  1  0  0  0
 14 15  1  0  0  0
 10 11  1  0  0  0
 11 12  2  0  0  0
 26 27  1  0  0  0
 27 28  2  0  0  0
 36 37  2  0  0  0
 37 38  1  0  0  0
 38 39  2  0  0  0
 39 42  1  0  0  0
 42 43  1  0  0  0
 39 30  1  0  0  0
 37 32  1  0  0  0
 28 23  1  0  0  0
 11  5  1  0  0  0
 22 17  1  0  0  0
 15 13  1  0  0  0
  1  4  1  0  0  0
M  END
> <minimizedAffinity>
-9.01762

> <CNNscore>
0.3987656832

> <CNNaffinity>
7.0912599564

> <CNN_VS>
2.8277511597

> <CNNaffinity_variance>
0.5960265994

$$$$
[H]c1nc([H])c2c([H])c(OC([H])([H])[H])c(OC([H])([H])[H])c([H])c2c1Oc1c([H])c([H])c(N([H])C(=O)c2c([H])n(C([H])([H])c3c([H])c([H])c([H])c([H])c3[H])c(=O)n(C3([H])C([H])([H])C3([H])[H])c2=O)c([H])c1[H]


 43 48  0  0  0  0  0  0  0  0999 V2000
   55.0698   -6.0140   -4.3105 N   0  0  0  0  0  0  0  0  0  0  0  0
   54.5171   -6.3150   -5.5371 C   0  0  0  0  0  0  0  0  0  0  0  0
   54.6115   -7.5195   -5.9779 O   0  0  0  0  0  0  0  0  0  0  0  0
   54.9973   -4.9999   -3.9889 H   0  0  0  0  0  0  0  0  0  0  0  0
   53.8189   -5.3820   -6.4158 C   0  0  0  0  0  0  0  0  0  0  0  0
   54.5883   -4.7250   -7.4050 C   0  0  0  0  0  0  0  0  0  0  0  0
   53.9700   -3.8437   -8.1881 N   0  0  0  0  0  0  0  0  0  0  0  0
   52.6796   -3.5724   -8.0667 C   0  0  0  0  0  0  0  0  0  0  0  0
   52.1531   -2.7147   -8.8514 O   0  0  0  0  0  0  0  0  0  0  0  0
   51.8754   -4.1537   -7.1521 N   0  0  0  0  0  0  0  0  0  0  0  0
   52.4974   -5.0692   -6.3324 C   0  0  0  0  0  0  0  0  0  0  0  0
   51.7658   -5.6076   -5.4943 O   0  0  0  0  0  0  0  0  0  0  0  0
   50.4814   -3.8316   -7.0520 C   0  0  0  0  0  0  0  0  0  0  0  0
   49.9415   -2.4653   -7.0032 C   0  0  0  0  0  0  0  0  0  0  0  0
   49.8031   -3.4249   -5.8137 C   0  0  0  0  0  0  0  0  0  0  0  0
   54.7771   -3.1799   -9.2077 C   0  0  0  0  0  0  0  0  0  0  0  0
   56.0181   -3.9334   -9.4997 C   0  0  0  0  0  0  0  0  0  0  0  0
   56.4372   -4.1109  -10.8163 C   0  0  0  0  0  0  0  0  0  0  0  0
   57.5784   -4.8137  -11.1275 C   0  0  0  0  0  0  0  0  0  0  0  0
   58.3770   -5.3863  -10.1399 C   0  0  0  0  0  0  0  0  0  0  0  0
   57.9704   -5.2160   -8.8383 C   0  0  0  0  0  0  0  0  0  0  0  0
   56.8167   -4.5054   -8.5238 C   0  0  0  0  0  0  0  0  0  0  0  0
   56.9718   -8.5581   -1.4549 C   0  0  0  0  0  0  0  0  0  0  0  0
   57.5785   -8.2602   -2.6484 C   0  0  0  0  0  0  0  0  0  0  0  0
   56.9917   -7.4369   -3.6225 C   0  0  0  0  0  0  0  0  0  0  0  0
   55.7604   -6.8898   -3.4039 C   0  0  0  0  0  0  0  0  0  0  0  0
   55.1541   -7.2055   -2.1789 C   0  0  0  0  0  0  0  0  0  0  0  0
   55.7266   -8.0068   -1.2328 C   0  0  0  0  0  0  0  0  0  0  0  0
   57.6095   -9.3720   -0.5454 O   0  0  0  0  0  0  0  0  0  0  0  0
   61.8393  -11.8883   -0.5173 C   0  0  0  0  0  0  0  0  0  0  0  0
   62.0523  -10.7997    0.2928 C   0  0  0  0  0  0  0  0  0  0  0  0
   61.0377   -9.8845    0.4928 C   0  0  0  0  0  0  0  0  0  0  0  0
   61.2154   -8.7818    1.2983 C   0  0  0  0  0  0  0  0  0  0  0  0
   60.2072   -7.9110    1.4715 N   0  0  0  0  0  0  0  0  0  0  0  0
   59.0049   -8.0428    0.8994 C   0  0  0  0  0  0  0  0  0  0  0  0
   58.7938   -9.1338    0.0884 C   0  0  0  0  0  0  0  0  0  0  0  0
   59.8114  -10.0650   -0.1216 C   0  0  0  0  0  0  0  0  0  0  0  0
   59.6194  -11.1636   -0.9301 C   0  0  0  0  0  0  0  0  0  0  0  0
   60.6245  -12.0777   -1.1333 C   0  0  0  0  0  0  0  0  0  0  0  0
   64.1726  -12.4956   -0.3549 C   0  0  0  0  0  0  0  0  0  0  0  0
   62.8542  -12.8024   -0.7164 O   0  0  0  0  0  0  0  0  0  0  0  0
   60.4160  -13.1759   -1.9490 O   0  0  0  0  0  0  0  0  0  0  0  0
   60.3483  -13.0239   -3.3497 C   0  0  0  0  0  0  0  0  0  0  0  0
 40 41  1  0  0  0
 41 30  1  0  0  0
 30 31  2  0  0  0
 31 32  1  0  0  0
 32 33  2  0  0  0
 33 34  1  0  0  0
 34 35  2  0  0  0
 35 36  1  0  0  0
 36 29  1  0  0  0
 29 23  1  0  0  0
 23 24  2  0  0  0
 24 25  1  0  0  0
 25 26  2  0  0  0
 26  1  1  0  0  0
  1  2  1  0  0  0
  2  3  2  0  0  0
  2  5  1  0  0  0
  5  6  2  0  0  0
  6  7  1  0  0  0
  7 16  1  0  0  0
 16 17  1  0  0  0
 17 18  2  0  0  0
 18 19  1  0  0  0
 19 20  2  0  0  0
 20 21  1  0  0  0
 21 22  2  0  0  0
  7  8  1  0  0  0
  8  9  2  0  0  0
  8 10  1  0  0  0
 10 13  1  0  0  0
 13 14  1  0  0  0
 14 15  1  0  0  0
 10 11  1  0  0  0
 11 12  2  0  0  0
 26 27  1  0  0  0
 27 28  2  0  0  0
 36 37  2  0  0  0
 37 38  1  0  0  0
 38 39  2  0  0  0
 39 42  1  0  0  0
 42 43  1  0  0  0
 39 30  1  0  0  0
 37 32  1  0  0  0
 28 23  1  0  0  0
 11  5  1  0  0  0
 22 17  1  0  0  0
 15 13  1  0  0  0
  1  4  1  0  0  0
M  END
> <minimizedAffinity>
-9.05231

> <CNNscore>
0.3392362595

> <CNNaffinity>
6.8494482040

> <CNN_VS>
2.3235812187

> <CNNaffinity_variance>
0.1193777919

$$$$
[H]c1nc([H])c2c([H])c(OC([H])([H])[H])c(OC([H])([H])[H])c([H])c2c1Oc1c([H])c([H])c(N([H])C(=O)c2c([H])n(C([H])([H])c3c([H])c([H])c([H])c([H])c3[H])c(=O)n(C3([H])C([H])([H])C3([H])[H])c2=O)c([H])c1[H]


 43 48  0  0  0  0  0  0  0  0999 V2000
   58.6351   -3.3947  -13.5896 N   0  0  0  0  0  0  0  0  0  0  0  0
   59.9482   -3.7846  -13.7452 C   0  0  0  0  0  0  0  0  0  0  0  0
   60.4836   -4.5252  -12.8402 O   0  0  0  0  0  0  0  0  0  0  0  0
   58.2321   -2.7585  -14.3447 H   0  0  0  0  0  0  0  0  0  0  0  0
   60.8218   -3.4315  -14.8597 C   0  0  0  0  0  0  0  0  0  0  0  0
   60.2603   -3.4638  -16.1581 C   0  0  0  0  0  0  0  0  0  0  0  0
   61.0572   -3.1800  -17.1860 N   0  0  0  0  0  0  0  0  0  0  0  0
   62.3358   -2.8745  -17.0268 C   0  0  0  0  0  0  0  0  0  0  0  0
   63.0410   -2.6148  -18.0581 O   0  0  0  0  0  0  0  0  0  0  0  0
   62.9483   -2.8205  -15.8255 N   0  0  0  0  0  0  0  0  0  0  0  0
   62.1395   -3.1110  -14.7492 C   0  0  0  0  0  0  0  0  0  0  0  0
   62.6935   -3.0604  -13.6456 O   0  0  0  0  0  0  0  0  0  0  0  0
   64.3369   -2.4862  -15.6951 C   0  0  0  0  0  0  0  0  0  0  0  0
   64.8518   -1.1263  -15.4802 C   0  0  0  0  0  0  0  0  0  0  0  0
   65.1626   -1.9076  -16.7640 C   0  0  0  0  0  0  0  0  0  0  0  0
   60.4601   -3.2115  -18.5179 C   0  0  0  0  0  0  0  0  0  0  0  0
   59.4445   -2.1472  -18.6878 C   0  0  0  0  0  0  0  0  0  0  0  0
   59.8388   -0.8203  -18.8438 C   0  0  0  0  0  0  0  0  0  0  0  0
   58.9245    0.1970  -18.9935 C   0  0  0  0  0  0  0  0  0  0  0  0
   57.5529   -0.0468  -18.9970 C   0  0  0  0  0  0  0  0  0  0  0  0
   57.1555   -1.3534  -18.8435 C   0  0  0  0  0  0  0  0  0  0  0  0
   58.0798   -2.3817  -18.6923 C   0  0  0  0  0  0  0  0  0  0  0  0
   56.1236   -4.4159  -10.2890 C   0  0  0  0  0  0  0  0  0  0  0  0
   55.5910   -4.1515  -11.5251 C   0  0  0  0  0  0  0  0  0  0  0  0
   56.3725   -3.8036  -12.6383 C   0  0  0  0  0  0  0  0  0  0  0  0
   57.7295   -3.7158  -12.5206 C   0  0  0  0  0  0  0  0  0  0  0  0
   58.2571   -3.9883  -11.2497 C   0  0  0  0  0  0  0  0  0  0  0  0
   57.4950   -4.3265  -10.1681 C   0  0  0  0  0  0  0  0  0  0  0  0
   55.2944   -4.7536   -9.2427 O   0  0  0  0  0  0  0  0  0  0  0  0
   52.2338   -5.5550   -5.4725 C   0  0  0  0  0  0  0  0  0  0  0  0
   51.6510   -4.5572   -6.2151 C   0  0  0  0  0  0  0  0  0  0  0  0
   52.2757   -4.0987   -7.3580 C   0  0  0  0  0  0  0  0  0  0  0  0
   51.7207   -3.1001   -8.1270 C   0  0  0  0  0  0  0  0  0  0  0  0
   52.3550   -2.6775   -9.2333 N   0  0  0  0  0  0  0  0  0  0  0  0
   53.5241   -3.1732   -9.6547 C   0  0  0  0  0  0  0  0  0  0  0  0
   54.1060   -4.1725   -8.9095 C   0  0  0  0  0  0  0  0  0  0  0  0
   53.4846   -4.6436   -7.7525 C   0  0  0  0  0  0  0  0  0  0  0  0
   54.0515   -5.6433   -6.9930 C   0  0  0  0  0  0  0  0  0  0  0  0
   53.4354   -6.1039   -5.8549 C   0  0  0  0  0  0  0  0  0  0  0  0
   50.6155   -5.2474   -3.7046 C   0  0  0  0  0  0  0  0  0  0  0  0
   51.6085   -6.0125   -4.3302 O   0  0  0  0  0  0  0  0  0  0  0  0
   54.0182   -7.1083   -5.1023 O   0  0  0  0  0  0  0  0  0  0  0  0
   55.3681   -7.4630   -5.3061 C   0  0  0  0  0  0  0  0  0  0  0  0
 40 41  1  0  0  0
 41 30  1  0  0  0
 30 31  2  0  0  0
 31 32  1  0  0  0
 32 33  2  0  0  0
 33 34  1  0  0  0
 34 35  2  0  0  0
 35 36  1  0  0  0
 36 29  1  0  0  0
 29 23  1  0  0  0
 23 24  2  0  0  0
 24 25  1  0  0  0
 25 26  2  0  0  0
 26  1  1  0  0  0
  1  2  1  0  0  0
  2  3  2  0  0  0
  2  5  1  0  0  0
  5  6  2  0  0  0
  6  7  1  0  0  0
  7 16  1  0  0  0
 16 17  1  0  0  0
 17 18  2  0  0  0
 18 19  1  0  0  0
 19 20  2  0  0  0
 20 21  1  0  0  0
 21 22  2  0  0  0
  7  8  1  0  0  0
  8  9  2  0  0  0
  8 10  1  0  0  0
 10 13  1  0  0  0
 13 14  1  0  0  0
 14 15  1  0  0  0
 10 11  1  0  0  0
 11 12  2  0  0  0
 26 27  1  0  0  0
 27 28  2  0  0  0
 36 37  2  0  0  0
 37 38  1  0  0  0
 38 39  2  0  0  0
 39 42  1  0  0  0
 42 43  1  0  0  0
 39 30  1  0  0  0
 37 32  1  0  0  0
 28 23  1  0  0  0
 11  5  1  0  0  0
 22 17  1  0  0  0
 15 13  1  0  0  0
  1  4  1  0  0  0
M  END
> <minimizedAffinity>
-8.44233

> <CNNscore>
0.3313962519

> <CNNaffinity>
6.8155469894

> <CNN_VS>
2.2586467266

> <CNNaffinity_variance>
0.2973493934

$$$$
[H]c1nc([H])c2c([H])c(OC([H])([H])[H])c(OC([H])([H])[H])c([H])c2c1Oc1c([H])c([H])c(N([H])C(=O)c2c([H])n(C([H])([H])c3c([H])c([H])c([H])c([H])c3[H])c(=O)n(C3([H])C([H])([H])C3([H])[H])c2=O)c([H])c1[H]


 43 48  0  0  0  0  0  0  0  0999 V2000
   59.6148   -6.6592  -10.1047 N   0  0  0  0  0  0  0  0  0  0  0  0
   60.8528   -6.9962   -9.6003 C   0  0  0  0  0  0  0  0  0  0  0  0
   61.2014   -6.5268   -8.4549 O   0  0  0  0  0  0  0  0  0  0  0  0
   59.3701   -7.0435  -11.0688 H   0  0  0  0  0  0  0  0  0  0  0  0
   61.8402   -7.8518  -10.2507 C   0  0  0  0  0  0  0  0  0  0  0  0
   61.6335   -9.2498  -10.1788 C   0  0  0  0  0  0  0  0  0  0  0  0
   62.5471  -10.0416  -10.7360 N   0  0  0  0  0  0  0  0  0  0  0  0
   63.6222   -9.5633  -11.3433 C   0  0  0  0  0  0  0  0  0  0  0  0
   64.4575  -10.3817  -11.8543 O   0  0  0  0  0  0  0  0  0  0  0  0
   63.8940   -8.2463  -11.4567 N   0  0  0  0  0  0  0  0  0  0  0  0
   62.9595   -7.4107  -10.8863 C   0  0  0  0  0  0  0  0  0  0  0  0
   63.2008   -6.2030  -10.9892 O   0  0  0  0  0  0  0  0  0  0  0  0
   65.0711   -7.7680  -12.1221 C   0  0  0  0  0  0  0  0  0  0  0  0
   65.1207   -6.5712  -12.9741 C   0  0  0  0  0  0  0  0  0  0  0  0
   65.3696   -7.9733  -13.5461 C   0  0  0  0  0  0  0  0  0  0  0  0
   62.3149  -11.4809  -10.6585 C   0  0  0  0  0  0  0  0  0  0  0  0
   62.5237  -11.9959   -9.2858 C   0  0  0  0  0  0  0  0  0  0  0  0
   61.4334  -12.3752   -8.5060 C   0  0  0  0  0  0  0  0  0  0  0  0
   61.5867  -12.8481   -7.2230 C   0  0  0  0  0  0  0  0  0  0  0  0
   62.8434  -12.9728   -6.6347 C   0  0  0  0  0  0  0  0  0  0  0  0
   63.9243  -12.6006   -7.3973 C   0  0  0  0  0  0  0  0  0  0  0  0
   63.7692  -12.1226   -8.6944 C   0  0  0  0  0  0  0  0  0  0  0  0
   56.5814   -4.0940   -8.5353 C   0  0  0  0  0  0  0  0  0  0  0  0
   57.3856   -4.8279   -7.7009 C   0  0  0  0  0  0  0  0  0  0  0  0
   58.3900   -5.6908   -8.1673 C   0  0  0  0  0  0  0  0  0  0  0  0
   58.6041   -5.8295   -9.5082 C   0  0  0  0  0  0  0  0  0  0  0  0
   57.7724   -5.0726  -10.3468 C   0  0  0  0  0  0  0  0  0  0  0  0
   56.7957   -4.2339   -9.8911 C   0  0  0  0  0  0  0  0  0  0  0  0
   55.6174   -3.2656   -8.0055 O   0  0  0  0  0  0  0  0  0  0  0  0
   52.0201   -5.6820   -5.6720 C   0  0  0  0  0  0  0  0  0  0  0  0
   51.4034   -4.9936   -6.6881 C   0  0  0  0  0  0  0  0  0  0  0  0
   52.1547   -4.2061   -7.5379 C   0  0  0  0  0  0  0  0  0  0  0  0
   51.5703   -3.5023   -8.5673 C   0  0  0  0  0  0  0  0  0  0  0  0
   52.3308   -2.7454   -9.3759 N   0  0  0  0  0  0  0  0  0  0  0  0
   53.6570   -2.6230   -9.2486 C   0  0  0  0  0  0  0  0  0  0  0  0
   54.2727   -3.3133   -8.2303 C   0  0  0  0  0  0  0  0  0  0  0  0
   53.5240   -4.1118   -7.3650 C   0  0  0  0  0  0  0  0  0  0  0  0
   54.1221   -4.8104   -6.3395 C   0  0  0  0  0  0  0  0  0  0  0  0
   53.3806   -5.5956   -5.4906 C   0  0  0  0  0  0  0  0  0  0  0  0
   50.6939   -5.9250   -3.6667 C   0  0  0  0  0  0  0  0  0  0  0  0
   51.2681   -6.4688   -4.8232 O   0  0  0  0  0  0  0  0  0  0  0  0
   53.9963   -6.2907   -4.4646 O   0  0  0  0  0  0  0  0  0  0  0  0
   55.4027   -6.3113   -4.3580 C   0  0  0  0  0  0  0  0  0  0  0  0
 40 41  1  0  0  0
 41 30  1  0  0  0
 30 31  2  0  0  0
 31 32  1  0  0  0
 32 33  2  0  0  0
 33 34  1  0  0  0
 34 35  2  0  0  0
 35 36  1  0  0  0
 36 29  1  0  0  0
 29 23  1  0  0  0
 23 24  2  0  0  0
 24 25  1  0  0  0
 25 26  2  0  0  0
 26  1  1  0  0  0
  1  2  1  0  0  0
  2  3  2  0  0  0
  2  5  1  0  0  0
  5  6  2  0  0  0
  6  7  1  0  0  0
  7 16  1  0  0  0
 16 17  1  0  0  0
 17 18  2  0  0  0
 18 19  1  0  0  0
 19 20  2  0  0  0
 20 21  1  0  0  0
 21 22  2  0  0  0
  7  8  1  0  0  0
  8  9  2  0  0  0
  8 10  1  0  0  0
 10 13  1  0  0  0
 13 14  1  0  0  0
 14 15  1  0  0  0
 10 11  1  0  0  0
 11 12  2  0  0  0
 26 27  1  0  0  0
 27 28  2  0  0  0
 36 37  2  0  0  0
 37 38  1  0  0  0
 38 39  2  0  0  0
 39 42  1  0  0  0
 42 43  1  0  0  0
 39 30  1  0  0  0
 37 32  1  0  0  0
 28 23  1  0  0  0
 11  5  1  0  0  0
 22 17  1  0  0  0
 15 13  1  0  0  0
  1  4  1  0  0  0
M  END
> <minimizedAffinity>
-7.14936

> <CNNscore>
0.2990387678

> <CNNaffinity>
6.6797895432

> <CNN_VS>
1.9975160360

> <CNNaffinity_variance>
0.3278340697

$$$$
[H]c1nc([H])c2c([H])c(OC([H])([H])[H])c(OC([H])([H])[H])c([H])c2c1Oc1c([H])c([H])c(N([H])C(=O)c2c([H])n(C([H])([H])c3c([H])c([H])c([H])c([H])c3[H])c(=O)n(C3([H])C([H])([H])C3([H])[H])c2=O)c([H])c1[H]


 43 48  0  0  0  0  0  0  0  0999 V2000
   56.4466   -5.5658   -8.7387 N   0  0  0  0  0  0  0  0  0  0  0  0
   55.9261   -4.7325   -7.7716 C   0  0  0  0  0  0  0  0  0  0  0  0
   56.7029   -3.8716   -7.2153 O   0  0  0  0  0  0  0  0  0  0  0  0
   55.7813   -6.2857   -9.1586 H   0  0  0  0  0  0  0  0  0  0  0  0
   54.5464   -4.7272   -7.2956 C   0  0  0  0  0  0  0  0  0  0  0  0
   54.2239   -5.6064   -6.2348 C   0  0  0  0  0  0  0  0  0  0  0  0
   52.9603   -5.6375   -5.8172 N   0  0  0  0  0  0  0  0  0  0  0  0
   52.0173   -4.8818   -6.3586 C   0  0  0  0  0  0  0  0  0  0  0  0
   50.8261   -4.9648   -5.9084 O   0  0  0  0  0  0  0  0  0  0  0  0
   52.2401   -4.0180   -7.3711 N   0  0  0  0  0  0  0  0  0  0  0  0
   53.5423   -3.9714   -7.8169 C   0  0  0  0  0  0  0  0  0  0  0  0
   53.7539   -3.1799   -8.7423 O   0  0  0  0  0  0  0  0  0  0  0  0
   51.1904   -3.2170   -7.9313 C   0  0  0  0  0  0  0  0  0  0  0  0
   51.3181   -1.7929   -8.2723 C   0  0  0  0  0  0  0  0  0  0  0  0
   50.3626   -2.2708   -7.1706 C   0  0  0  0  0  0  0  0  0  0  0  0
   52.6463   -6.5451   -4.7175 C   0  0  0  0  0  0  0  0  0  0  0  0
   53.1030   -6.0066   -3.4158 C   0  0  0  0  0  0  0  0  0  0  0  0
   54.4487   -6.0748   -3.0622 C   0  0  0  0  0  0  0  0  0  0  0  0
   54.9090   -5.5950   -1.8575 C   0  0  0  0  0  0  0  0  0  0  0  0
   54.0515   -5.0142   -0.9257 C   0  0  0  0  0  0  0  0  0  0  0  0
   52.7221   -4.9431   -1.2669 C   0  0  0  0  0  0  0  0  0  0  0  0
   52.2570   -5.4282   -2.4847 C   0  0  0  0  0  0  0  0  0  0  0  0
   60.5119   -5.7232  -10.0396 C   0  0  0  0  0  0  0  0  0  0  0  0
   59.5122   -5.3355  -10.8950 C   0  0  0  0  0  0  0  0  0  0  0  0
   58.1611   -5.2755  -10.5184 C   0  0  0  0  0  0  0  0  0  0  0  0
   57.7896   -5.6113   -9.2486 C   0  0  0  0  0  0  0  0  0  0  0  0
   58.8242   -6.0063   -8.3876 C   0  0  0  0  0  0  0  0  0  0  0  0
   60.1380   -6.0640   -8.7561 C   0  0  0  0  0  0  0  0  0  0  0  0
   61.8166   -5.7557  -10.4790 O   0  0  0  0  0  0  0  0  0  0  0  0
   63.5305   -6.5804  -15.0184 C   0  0  0  0  0  0  0  0  0  0  0  0
   63.8572   -7.6993  -14.2918 C   0  0  0  0  0  0  0  0  0  0  0  0
   63.5081   -7.7772  -12.9581 C   0  0  0  0  0  0  0  0  0  0  0  0
   63.8190   -8.8834  -12.1989 C   0  0  0  0  0  0  0  0  0  0  0  0
   63.4644   -8.9266  -10.9039 N   0  0  0  0  0  0  0  0  0  0  0  0
   62.8099   -7.9408  -10.2794 C   0  0  0  0  0  0  0  0  0  0  0  0
   62.4837   -6.8211  -11.0089 C   0  0  0  0  0  0  0  0  0  0  0  0
   62.8315   -6.7308  -12.3572 C   0  0  0  0  0  0  0  0  0  0  0  0
   62.5139   -5.6179  -13.1043 C   0  0  0  0  0  0  0  0  0  0  0  0
   62.8583   -5.5340  -14.4315 C   0  0  0  0  0  0  0  0  0  0  0  0
   65.2259   -6.5338  -16.7397 C   0  0  0  0  0  0  0  0  0  0  0  0
   63.8800   -6.5037  -16.3515 O   0  0  0  0  0  0  0  0  0  0  0  0
   62.5325   -4.4089  -15.1683 O   0  0  0  0  0  0  0  0  0  0  0  0
   61.4892   -3.5571  -14.7495 C   0  0  0  0  0  0  0  0  0  0  0  0
 40 41  1  0  0  0
 41 30  1  0  0  0
 30 31  2  0  0  0
 31 32  1  0  0  0
 32 33  2  0  0  0
 33 34  1  0  0  0
 34 35  2  0  0  0
 35 36  1  0  0  0
 36 29  1  0  0  0
 29 23  1  0  0  0
 23 24  2  0  0  0
 24 25  1  0  0  0
 25 26  2  0  0  0
 26  1  1  0  0  0
  1  2  1  0  0  0
  2  3  2  0  0  0
  2  5  1  0  0  0
  5  6  2  0  0  0
  6  7  1  0  0  0
  7 16  1  0  0  0
 16 17  1  0  0  0
 17 18  2  0  0  0
 18 19  1  0  0  0
 19 20  2  0  0  0
 20 21  1  0  0  0
 21 22  2  0  0  0
  7  8  1  0  0  0
  8  9  2  0  0  0
  8 10  1  0  0  0
 10 13  1  0  0  0
 13 14  1  0  0  0
 14 15  1  0  0  0
 10 11  1  0  0  0
 11 12  2  0  0  0
 26 27  1  0  0  0
 27 28  2  0  0  0
 36 37  2  0  0  0
 37 38  1  0  0  0
 38 39  2  0  0  0
 39 42  1  0  0  0
 42 43  1  0  0  0
 39 30  1  0  0  0
 37 32  1  0  0  0
 28 23  1  0  0  0
 11  5  1  0  0  0
 22 17  1  0  0  0
 15 13  1  0  0  0
  1  4  1  0  0  0
M  END
> <minimizedAffinity>
-6.63428

> <CNNscore>
0.2837748230

> <CNNaffinity>
6.7096848488

> <CNN_VS>
1.9040396214

> <CNNaffinity_variance>
0.5493671894

$$$$
[H]c1nc([H])c2c([H])c(OC([H])([H])[H])c(OC([H])([H])[H])c([H])c2c1Oc1c([H])c([H])c(N([H])C(=O)c2c([H])n(C([H])([H])c3c([H])c([H])c([H])c([H])c3[H])c(=O)n(C3([H])C([H])([H])C3([H])[H])c2=O)c([H])c1[H]


 43 48  0  0  0  0  0  0  0  0999 V2000
   56.5110   -3.6247  -11.2840 N   0  0  0  0  0  0  0  0  0  0  0  0
   57.5845   -4.2295  -11.9023 C   0  0  0  0  0  0  0  0  0  0  0  0
   58.1392   -5.2382  -11.3290 O   0  0  0  0  0  0  0  0  0  0  0  0
   56.0934   -2.7744  -11.7737 H   0  0  0  0  0  0  0  0  0  0  0  0
   58.1778   -3.8310  -13.1748 C   0  0  0  0  0  0  0  0  0  0  0  0
   59.5878   -3.7234  -13.2264 C   0  0  0  0  0  0  0  0  0  0  0  0
   60.1381   -3.3245  -14.3711 N   0  0  0  0  0  0  0  0  0  0  0  0
   59.4138   -3.0321  -15.4403 C   0  0  0  0  0  0  0  0  0  0  0  0
   60.0089   -2.6544  -16.5041 O   0  0  0  0  0  0  0  0  0  0  0  0
   58.0669   -3.1089  -15.4758 N   0  0  0  0  0  0  0  0  0  0  0  0
   57.4790   -3.5203  -14.3002 C   0  0  0  0  0  0  0  0  0  0  0  0
   56.2457   -3.5957  -14.3267 O   0  0  0  0  0  0  0  0  0  0  0  0
   57.3180   -2.7822  -16.6545 C   0  0  0  0  0  0  0  0  0  0  0  0
   55.9193   -3.1685  -16.8890 C   0  0  0  0  0  0  0  0  0  0  0  0
   57.0578   -3.7091  -17.7646 C   0  0  0  0  0  0  0  0  0  0  0  0
   61.5942   -3.2253  -14.4090 C   0  0  0  0  0  0  0  0  0  0  0  0
   62.2298   -4.5549  -14.5548 C   0  0  0  0  0  0  0  0  0  0  0  0
   62.7457   -5.2114  -13.4397 C   0  0  0  0  0  0  0  0  0  0  0  0
   63.3526   -6.4424  -13.5370 C   0  0  0  0  0  0  0  0  0  0  0  0
   63.4836   -7.0988  -14.7587 C   0  0  0  0  0  0  0  0  0  0  0  0
   62.9773   -6.4578  -15.8640 C   0  0  0  0  0  0  0  0  0  0  0  0
   62.3637   -5.2134  -15.7654 C   0  0  0  0  0  0  0  0  0  0  0  0
   54.8363   -4.7842   -7.5295 C   0  0  0  0  0  0  0  0  0  0  0  0
   54.0525   -4.2341   -8.5116 C   0  0  0  0  0  0  0  0  0  0  0  0
   54.5563   -3.8293   -9.7580 C   0  0  0  0  0  0  0  0  0  0  0  0
   55.8837   -3.9764  -10.0395 C   0  0  0  0  0  0  0  0  0  0  0  0
   56.6707   -4.5396   -9.0239 C   0  0  0  0  0  0  0  0  0  0  0  0
   56.1786   -4.9325   -7.8121 C   0  0  0  0  0  0  0  0  0  0  0  0
   54.2716   -5.1602   -6.3312 O   0  0  0  0  0  0  0  0  0  0  0  0
   51.9475   -6.4965   -2.2036 C   0  0  0  0  0  0  0  0  0  0  0  0
   50.9564   -6.2556   -3.1235 C   0  0  0  0  0  0  0  0  0  0  0  0
   51.2901   -5.8556   -4.4024 C   0  0  0  0  0  0  0  0  0  0  0  0
   50.3232   -5.6054   -5.3506 C   0  0  0  0  0  0  0  0  0  0  0  0
   50.6824   -5.2177   -6.5857 N   0  0  0  0  0  0  0  0  0  0  0  0
   51.9525   -5.0524   -6.9726 C   0  0  0  0  0  0  0  0  0  0  0  0
   52.9436   -5.2942   -6.0497 C   0  0  0  0  0  0  0  0  0  0  0  0
   52.6187   -5.6984   -4.7543 C   0  0  0  0  0  0  0  0  0  0  0  0
   53.5967   -5.9452   -3.8161 C   0  0  0  0  0  0  0  0  0  0  0  0
   53.2716   -6.3434   -2.5422 C   0  0  0  0  0  0  0  0  0  0  0  0
   50.6611   -7.9035   -0.7187 C   0  0  0  0  0  0  0  0  0  0  0  0
   51.6129   -6.8963   -0.9256 O   0  0  0  0  0  0  0  0  0  0  0  0
   54.2658   -6.5867   -1.6109 O   0  0  0  0  0  0  0  0  0  0  0  0
   55.0122   -5.5209   -1.0664 C   0  0  0  0  0  0  0  0  0  0  0  0
 40 41  1  0  0  0
 41 30  1  0  0  0
 30 31  2  0  0  0
 31 32  1  0  0  0
 32 33  2  0  0  0
 33 34  1  0  0  0
 34 35  2  0  0  0
 35 36  1  0  0  0
 36 29  1  0  0  0
 29 23  1  0  0  0
 23 24  2  0  0  0
 24 25  1  0  0  0
 25 26  2  0  0  0
 26  1  1  0  0  0
  1  2  1  0  0  0
  2  3  2  0  0  0
  2  5  1  0  0  0
  5  6  2  0  0  0
  6  7  1  0  0  0
  7 16  1  0  0  0
 16 17  1  0  0  0
 17 18  2  0  0  0
 18 19  1  0  0  0
 19 20  2  0  0  0
 20 21  1  0  0  0
 21 22  2  0  0  0
  7  8  1  0  0  0
  8  9  2  0  0  0
  8 10  1  0  0  0
 10 13  1  0  0  0
 13 14  1  0  0  0
 14 15  1  0  0  0
 10 11  1  0  0  0
 11 12  2  0  0  0
 26 27  1  0  0  0
 27 28  2  0  0  0
 36 37  2  0  0  0
 37 38  1  0  0  0
 38 39  2  0  0  0
 39 42  1  0  0  0
 42 43  1  0  0  0
 39 30  1  0  0  0
 37 32  1  0  0  0
 28 23  1  0  0  0
 11  5  1  0  0  0
 22 17  1  0  0  0
 15 13  1  0  0  0
  1  4  1  0  0  0
M  END
> <minimizedAffinity>
-9.58319

> <CNNscore>
0.2371884286

> <CNNaffinity>
6.5626640320

> <CNN_VS>
1.5565879345

> <CNNaffinity_variance>
0.2406698763

$$$$
[H]c1nc([H])c2c([H])c(OC([H])([H])[H])c(OC([H])([H])[H])c([H])c2c1Oc1c([H])c([H])c(N([H])C(=O)c2c([H])n(C([H])([H])c3c([H])c([H])c([H])c([H])c3[H])c(=O)n(C3([H])C([H])([H])C3([H])[H])c2=O)c([H])c1[H]


 43 48  0  0  0  0  0  0  0  0999 V2000
   55.4709   -6.5231   -4.0125 N   0  0  0  0  0  0  0  0  0  0  0  0
   54.7827   -6.7774   -5.1797 C   0  0  0  0  0  0  0  0  0  0  0  0
   55.0880   -7.8249   -5.8606 O   0  0  0  0  0  0  0  0  0  0  0  0
   55.2109   -5.6316   -3.4882 H   0  0  0  0  0  0  0  0  0  0  0  0
   53.7155   -5.9564   -5.7427 C   0  0  0  0  0  0  0  0  0  0  0  0
   54.0214   -5.2005   -6.8991 C   0  0  0  0  0  0  0  0  0  0  0  0
   53.0671   -4.4190   -7.3999 N   0  0  0  0  0  0  0  0  0  0  0  0
   51.8637   -4.3334   -6.8541 C   0  0  0  0  0  0  0  0  0  0  0  0
   50.9980   -3.5622   -7.3873 O   0  0  0  0  0  0  0  0  0  0  0  0
   51.4905   -5.0196   -5.7536 N   0  0  0  0  0  0  0  0  0  0  0  0
   52.4649   -5.8342   -5.2208 C   0  0  0  0  0  0  0  0  0  0  0  0
   52.1287   -6.4679   -4.2144 O   0  0  0  0  0  0  0  0  0  0  0  0
   50.1764   -4.8984   -5.1920 C   0  0  0  0  0  0  0  0  0  0  0  0
   49.5129   -3.6227   -4.8872 C   0  0  0  0  0  0  0  0  0  0  0  0
   49.8931   -4.6134   -3.7787 C   0  0  0  0  0  0  0  0  0  0  0  0
   53.3974   -3.6512   -8.5970 C   0  0  0  0  0  0  0  0  0  0  0  0
   54.7519   -3.9766   -9.0995 C   0  0  0  0  0  0  0  0  0  0  0  0
   54.9906   -4.0576  -10.4696 C   0  0  0  0  0  0  0  0  0  0  0  0
   56.2326   -4.3678  -10.9741 C   0  0  0  0  0  0  0  0  0  0  0  0
   57.3196   -4.6178  -10.1393 C   0  0  0  0  0  0  0  0  0  0  0  0
   57.0925   -4.5400   -8.7861 C   0  0  0  0  0  0  0  0  0  0  0  0
   55.8369   -4.2264   -8.2763 C   0  0  0  0  0  0  0  0  0  0  0  0
   58.7284   -8.7651   -2.3981 C   0  0  0  0  0  0  0  0  0  0  0  0
   57.4616   -8.8954   -1.8887 C   0  0  0  0  0  0  0  0  0  0  0  0
   56.3603   -8.1753   -2.3784 C   0  0  0  0  0  0  0  0  0  0  0  0
   56.5221   -7.2962   -3.4099 C   0  0  0  0  0  0  0  0  0  0  0  0
   57.8240   -7.1747   -3.9180 C   0  0  0  0  0  0  0  0  0  0  0  0
   58.8939   -7.8760   -3.4401 C   0  0  0  0  0  0  0  0  0  0  0  0
   59.7606   -9.5067   -1.8681 O   0  0  0  0  0  0  0  0  0  0  0  0
   61.0143  -13.5230   -4.4219 C   0  0  0  0  0  0  0  0  0  0  0  0
   60.5976  -13.9807   -3.1957 C   0  0  0  0  0  0  0  0  0  0  0  0
   60.1745  -13.0826   -2.2360 C   0  0  0  0  0  0  0  0  0  0  0  0
   59.7498  -13.5054   -0.9960 C   0  0  0  0  0  0  0  0  0  0  0  0
   59.3445  -12.6048   -0.0852 N   0  0  0  0  0  0  0  0  0  0  0  0
   59.3230  -11.2850   -0.3037 C   0  0  0  0  0  0  0  0  0  0  0  0
   59.7407  -10.8288   -1.5325 C   0  0  0  0  0  0  0  0  0  0  0  0
   60.1709  -11.7266   -2.5101 C   0  0  0  0  0  0  0  0  0  0  0  0
   60.5930  -11.2892   -3.7462 C   0  0  0  0  0  0  0  0  0  0  0  0
   61.0152  -12.1773   -4.7055 C   0  0  0  0  0  0  0  0  0  0  0  0
   62.6117  -15.1626   -5.1960 C   0  0  0  0  0  0  0  0  0  0  0  0
   61.4371  -14.4216   -5.3805 O   0  0  0  0  0  0  0  0  0  0  0  0
   61.4369  -11.7220   -5.9423 O   0  0  0  0  0  0  0  0  0  0  0  0
   60.5500  -11.7059   -7.0390 C   0  0  0  0  0  0  0  0  0  0  0  0
 40 41  1  0  0  0
 41 30  1  0  0  0
 30 31  2  0  0  0
 31 32  1  0  0  0
 32 33  2  0  0  0
 33 34  1  0  0  0
 34 35  2  0  0  0
 35 36  1  0  0  0
 36 29  1  0  0  0
 29 23  1  0  0  0
 23 24  2  0  0  0
 24 25  1  0  0  0
 25 26  2  0  0  0
 26  1  1  0  0  0
  1  2  1  0  0  0
  2  3  2  0  0  0
  2  5  1  0  0  0
  5  6  2  0  0  0
  6  7  1  0  0  0
  7 16  1  0  0  0
 16 17  1  0  0  0
 17 18  2  0  0  0
 18 19  1  0  0  0
 19 20  2  0  0  0
 20 21  1  0  0  0
 21 22  2  0  0  0
  7  8  1  0  0  0
  8  9  2  0  0  0
  8 10  1  0  0  0
 10 13  1  0  0  0
 13 14  1  0  0  0
 14 15  1  0  0  0
 10 11  1  0  0  0
 11 12  2  0  0  0
 26 27  1  0  0  0
 27 28  2  0  0  0
 36 37  2  0  0  0
 37 38  1  0  0  0
 38 39  2  0  0  0
 39 42  1  0  0  0
 42 43  1  0  0  0
 39 30  1  0  0  0
 37 32  1  0  0  0
 28 23  1  0  0  0
 11  5  1  0  0  0
 22 17  1  0  0  0
 15 13  1  0  0  0
  1  4  1  0  0  0
M  END
> <minimizedAffinity>
-9.48573

> <CNNscore>
0.2331973612

> <CNNaffinity>
6.5194711685

> <CNN_VS>
1.5203235149

> <CNNaffinity_variance>
0.1630868465

$$$$
[H]OC([H])([H])[C@@]1([H])O[C@]([H])(n2c([H])c([H])c(=O)n([H])c2=O)[C@]([H])(O[H])[C@]1([H])O[H]


 21 22  0  0  0  0  0  0  0  0999 V2000
   52.1084   -6.2113   -6.8023 C   0  0  0  0  0  0  0  0  0  0  0  0
   52.6195   -5.5696   -7.9114 O   0  0  0  0  0  0  0  0  0  0  0  0
   53.5993   -4.6994   -7.5057 C   0  0  0  0  0  0  0  0  0  0  0  0
   54.0742   -5.2151   -6.1759 C   0  0  0  0  0  0  0  0  0  0  0  0
   54.6754   -6.4717   -6.2806 O   0  0  0  0  0  0  0  0  0  0  0  0
   52.6786   -5.4990   -5.5884 C   0  0  0  0  0  0  0  0  0  0  0  0
   52.7488   -6.3149   -4.4819 O   0  0  0  0  0  0  0  0  0  0  0  0
   54.5786   -6.8399   -7.1975 H   0  0  0  0  0  0  0  0  0  0  0  0
   53.1399   -5.8081   -3.7496 H   0  0  0  0  0  0  0  0  0  0  0  0
   54.6442   -4.4871   -8.4652 N   0  0  0  0  0  0  0  0  0  0  0  0
   55.8872   -4.9346   -8.3471 C   0  0  0  0  0  0  0  0  0  0  0  0
   56.8220   -4.6803   -9.3216 C   0  0  0  0  0  0  0  0  0  0  0  0
   56.4464   -3.9484  -10.4312 C   0  0  0  0  0  0  0  0  0  0  0  0
   57.3089   -3.7220  -11.3153 O   0  0  0  0  0  0  0  0  0  0  0  0
   55.1831   -3.5007  -10.5384 N   0  0  0  0  0  0  0  0  0  0  0  0
   54.3099   -3.7768   -9.5587 C   0  0  0  0  0  0  0  0  0  0  0  0
   53.1177   -3.3278   -9.7077 O   0  0  0  0  0  0  0  0  0  0  0  0
   54.8700   -2.9379  -11.3782 H   0  0  0  0  0  0  0  0  0  0  0  0
   50.1041   -5.6460   -5.6346 O   0  0  0  0  0  0  0  0  0  0  0  0
   50.5978   -6.2232   -6.7792 C   0  0  0  0  0  0  0  0  0  0  0  0
   49.7974   -6.3217   -4.9576 H   0  0  0  0  0  0  0  0  0  0  0  0
 19 20  1  0  0  0
 20  1  1  0  0  0
  1  2  1  0  0  0
  2  3  1  0  0  0
  3  4  1  0  0  0
  4  5  1  0  0  0
  4  6  1  0  0  0
  6  7  1  0  0  0
  3 10  1  0  0  0
 10 11  1  0  0  0
 11 12  2  0  0  0
 12 13  1  0  0  0
 13 14  2  0  0  0
 13 15  1  0  0  0
 15 16  1  0  0  0
 16 17  2  0  0  0
  6  1  1  0  0  0
 16 10  1  0  0  0
 19 21  1  0  0  0
  5  8  1  0  0  0
  7  9  1  0  0  0
 15 18  1  0  0  0
M  END
> <minimizedAffinity>
-6.73378

> <CNNscore>
0.6695978642

> <CNNaffinity>
4.5135755539

> <CNN_VS>
3.0222804546

> <CNNaffinity_variance>
0.2792821527

$$$$
[H]OC([H])([H])[C@@]1([H])O[C@]([H])(n2c([H])c([H])c(=O)n([H])c2=O)[C@]([H])(O[H])[C@]1([H])O[H]


 21 22  0  0  0  0  0  0  0  0999 V2000
   56.1475   -4.8286   -7.0312 C   0  0  0  0  0  0  0  0  0  0  0  0
   55.0172   -4.2373   -7.5564 O   0  0  0  0  0  0  0  0  0  0  0  0
   53.9534   -5.0856   -7.3821 C   0  0  0  0  0  0  0  0  0  0  0  0
   54.3349   -5.9847   -6.2392 C   0  0  0  0  0  0  0  0  0  0  0  0
   54.4848   -5.2818   -5.0414 O   0  0  0  0  0  0  0  0  0  0  0  0
   55.7751   -6.2651   -6.7088 C   0  0  0  0  0  0  0  0  0  0  0  0
   56.5450   -6.7965   -5.6991 O   0  0  0  0  0  0  0  0  0  0  0  0
   54.4194   -4.3023   -5.1900 H   0  0  0  0  0  0  0  0  0  0  0  0
   56.2438   -7.7053   -5.5275 H   0  0  0  0  0  0  0  0  0  0  0  0
   52.6873   -4.4307   -7.2223 N   0  0  0  0  0  0  0  0  0  0  0  0
   51.7975   -4.7154   -6.2809 C   0  0  0  0  0  0  0  0  0  0  0  0
   50.6080   -4.0314   -6.2071 C   0  0  0  0  0  0  0  0  0  0  0  0
   50.3514   -3.0382   -7.1322 C   0  0  0  0  0  0  0  0  0  0  0  0
   49.2613   -2.4198   -7.0553 O   0  0  0  0  0  0  0  0  0  0  0  0
   51.2620   -2.7596   -8.0813 N   0  0  0  0  0  0  0  0  0  0  0  0
   52.4071   -3.4572   -8.1089 C   0  0  0  0  0  0  0  0  0  0  0  0
   53.2431   -3.1539   -9.0332 O   0  0  0  0  0  0  0  0  0  0  0  0
   51.0898   -2.0037   -8.8017 H   0  0  0  0  0  0  0  0  0  0  0  0
   58.2429   -5.7532   -7.7055 O   0  0  0  0  0  0  0  0  0  0  0  0
   57.3313   -4.7597   -7.9675 C   0  0  0  0  0  0  0  0  0  0  0  0
   59.0414   -5.4249   -7.1920 H   0  0  0  0  0  0  0  0  0  0  0  0
 19 20  1  0  0  0
 20  1  1  0  0  0
  1  2  1  0  0  0
  2  3  1  0  0  0
  3  4  1  0  0  0
  4  5  1  0  0  0
  4  6  1  0  0  0
  6  7  1  0  0  0
  3 10  1  0  0  0
 10 11  1  0  0  0
 11 12  2  0  0  0
 12 13  1  0  0  0
 13 14  2  0  0  0
 13 15  1  0  0  0
 15 16  1  0  0  0
 16 17  2  0  0  0
  6  1  1  0  0  0
 16 10  1  0  0  0
 19 21  1  0  0  0
  5  8  1  0  0  0
  7  9  1  0  0  0
 15 18  1  0  0  0
M  END
> <minimizedAffinity>
-7.06842

> <CNNscore>
0.5941619277

> <CNNaffinity>
4.5713758469

> <CNN_VS>
2.7161374092

> <CNNaffinity_variance>
0.2780965567

$$$$
[H]OC([H])([H])[C@@]1([H])O[C@]([H])(n2c([H])c([H])c(=O)n([H])c2=O)[C@]([H])(O[H])[C@]1([H])O[H]


 21 22  0  0  0  0  0  0  0  0999 V2000
   56.1829   -4.9686   -8.6371 C   0  0  0  0  0  0  0  0  0  0  0  0
   55.1954   -4.6407   -7.7313 O   0  0  0  0  0  0  0  0  0  0  0  0
   54.4378   -3.6230   -8.2530 C   0  0  0  0  0  0  0  0  0  0  0  0
   54.6304   -3.6967   -9.7421 C   0  0  0  0  0  0  0  0  0  0  0  0
   54.1293   -4.8838  -10.2817 O   0  0  0  0  0  0  0  0  0  0  0  0
   56.1576   -3.8968   -9.7126 C   0  0  0  0  0  0  0  0  0  0  0  0
   56.6348   -4.3503  -10.9215 O   0  0  0  0  0  0  0  0  0  0  0  0
   53.8379   -5.5076   -9.5663 H   0  0  0  0  0  0  0  0  0  0  0  0
   56.5722   -3.6268  -11.5686 H   0  0  0  0  0  0  0  0  0  0  0  0
   53.0662   -3.6240   -7.8333 N   0  0  0  0  0  0  0  0  0  0  0  0
   52.5128   -4.5363   -7.0455 C   0  0  0  0  0  0  0  0  0  0  0  0
   51.1863   -4.4532   -6.6965 C   0  0  0  0  0  0  0  0  0  0  0  0
   50.4342   -3.4004   -7.1804 C   0  0  0  0  0  0  0  0  0  0  0  0
   49.2232   -3.3345   -6.8551 O   0  0  0  0  0  0  0  0  0  0  0  0
   51.0076   -2.4824   -7.9781 N   0  0  0  0  0  0  0  0  0  0  0  0
   52.3061   -2.6103   -8.2882 C   0  0  0  0  0  0  0  0  0  0  0  0
   52.8063   -1.7094   -9.0520 O   0  0  0  0  0  0  0  0  0  0  0  0
   50.4536   -1.6665   -8.3620 H   0  0  0  0  0  0  0  0  0  0  0  0
   58.4131   -5.8095   -8.7765 O   0  0  0  0  0  0  0  0  0  0  0  0
   57.5474   -5.0805   -7.9981 C   0  0  0  0  0  0  0  0  0  0  0  0
   58.5380   -6.7498   -8.4459 H   0  0  0  0  0  0  0  0  0  0  0  0
 19 20  1  0  0  0
 20  1  1  0  0  0
  1  2  1  0  0  0
  2  3  1  0  0  0
  3  4  1  0  0  0
  4  5  1  0  0  0
  4  6  1  0  0  0
  6  7  1  0  0  0
  3 10  1  0  0  0
 10 11  1  0  0  0
 11 12  2  0  0  0
 12 13  1  0  0  0
 13 14  2  0  0  0
 13 15  1  0  0  0
 15 16  1  0  0  0
 16 17  2  0  0  0
  6  1  1  0  0  0
 16 10  1  0  0  0
 19 21  1  0  0  0
  5  8  1  0  0  0
  7  9  1  0  0  0
 15 18  1  0  0  0
M  END
> <minimizedAffinity>
-6.07182

> <CNNscore>
0.5840181708

> <CNNaffinity>
4.3206968307

> <CNN_VS>
2.5233654976

> <CNNaffinity_variance>
0.2130125314

$$$$
[H]OC([H])([H])[C@@]1([H])O[C@]([H])(n2c([H])c([H])c(=O)n([H])c2=O)[C@]([H])(O[H])[C@]1([H])O[H]


 21 22  0  0  0  0  0  0  0  0999 V2000
   53.9837   -6.0001   -6.3322 C   0  0  0  0  0  0  0  0  0  0  0  0
   54.2502   -5.5445   -7.6068 O   0  0  0  0  0  0  0  0  0  0  0  0
   55.3324   -4.7029   -7.5577 C   0  0  0  0  0  0  0  0  0  0  0  0
   56.0805   -5.0771   -6.3086 C   0  0  0  0  0  0  0  0  0  0  0  0
   56.5887   -6.3770   -6.3665 O   0  0  0  0  0  0  0  0  0  0  0  0
   54.8483   -5.1814   -5.3898 C   0  0  0  0  0  0  0  0  0  0  0  0
   55.1390   -5.8516   -4.2231 O   0  0  0  0  0  0  0  0  0  0  0  0
   56.2671   -6.8517   -7.1770 H   0  0  0  0  0  0  0  0  0  0  0  0
   55.7096   -5.2850   -3.6760 H   0  0  0  0  0  0  0  0  0  0  0  0
   56.1346   -4.6917   -8.7467 N   0  0  0  0  0  0  0  0  0  0  0  0
   57.3452   -5.2233   -8.8521 C   0  0  0  0  0  0  0  0  0  0  0  0
   58.0393   -5.1632  -10.0365 C   0  0  0  0  0  0  0  0  0  0  0  0
   57.4549   -4.5381  -11.1209 C   0  0  0  0  0  0  0  0  0  0  0  0
   58.0983   -4.4890  -12.1981 O   0  0  0  0  0  0  0  0  0  0  0  0
   56.2271   -4.0035  -11.0005 N   0  0  0  0  0  0  0  0  0  0  0  0
   55.5929   -4.0896   -9.8220 C   0  0  0  0  0  0  0  0  0  0  0  0
   54.4245   -3.5644   -9.7580 O   0  0  0  0  0  0  0  0  0  0  0  0
   55.7573   -3.5193  -11.8159 H   0  0  0  0  0  0  0  0  0  0  0  0
   52.3301   -5.9473   -4.6107 O   0  0  0  0  0  0  0  0  0  0  0  0
   52.5203   -5.8992   -5.9703 C   0  0  0  0  0  0  0  0  0  0  0  0
   52.0142   -6.8460   -4.2922 H   0  0  0  0  0  0  0  0  0  0  0  0
 19 20  1  0  0  0
 20  1  1  0  0  0
  1  2  1  0  0  0
  2  3  1  0  0  0
  3  4  1  0  0  0
  4  5  1  0  0  0
  4  6  1  0  0  0
  6  7  1  0  0  0
  3 10  1  0  0  0
 10 11  1  0  0  0
 11 12  2  0  0  0
 12 13  1  0  0  0
 13 14  2  0  0  0
 13 15  1  0  0  0
 15 16  1  0  0  0
 16 17  2  0  0  0
  6  1  1  0  0  0
 16 10  1  0  0  0
 19 21  1  0  0  0
  5  8  1  0  0  0
  7  9  1  0  0  0
 15 18  1  0  0  0
M  END
> <minimizedAffinity>
-6.30885

> <CNNscore>
0.4942869544

> <CNNaffinity>
4.0966701508

> <CNN_VS>
2.0249307156

> <CNNaffinity_variance>
0.3213547468

$$$$
[H]OC([H])([H])[C@@]1([H])O[C@]([H])(n2c([H])c([H])c(=O)n([H])c2=O)[C@]([H])(O[H])[C@]1([H])O[H]


 21 22  0  0  0  0  0  0  0  0999 V2000
   55.2870   -5.4349   -3.7023 C   0  0  0  0  0  0  0  0  0  0  0  0
   55.3365   -4.7100   -4.8750 O   0  0  0  0  0  0  0  0  0  0  0  0
   54.9508   -5.5208   -5.9121 C   0  0  0  0  0  0  0  0  0  0  0  0
   54.1257   -6.6118   -5.2884 C   0  0  0  0  0  0  0  0  0  0  0  0
   52.9534   -6.1216   -4.7082 O   0  0  0  0  0  0  0  0  0  0  0  0
   55.0648   -6.8841   -4.0978 C   0  0  0  0  0  0  0  0  0  0  0  0
   54.4377   -7.6107   -3.1111 O   0  0  0  0  0  0  0  0  0  0  0  0
   52.9362   -5.1290   -4.7188 H   0  0  0  0  0  0  0  0  0  0  0  0
   54.3065   -8.5190   -3.4333 H   0  0  0  0  0  0  0  0  0  0  0  0
   54.3059   -4.8379   -6.9961 N   0  0  0  0  0  0  0  0  0  0  0  0
   53.0377   -4.4494   -7.0029 C   0  0  0  0  0  0  0  0  0  0  0  0
   52.5069   -3.7992   -8.0909 C   0  0  0  0  0  0  0  0  0  0  0  0
   53.3174   -3.5550   -9.1826 C   0  0  0  0  0  0  0  0  0  0  0  0
   52.8217   -2.9603  -10.1712 O   0  0  0  0  0  0  0  0  0  0  0  0
   54.6011   -3.9541   -9.1626 N   0  0  0  0  0  0  0  0  0  0  0  0
   55.0694   -4.5848   -8.0756 C   0  0  0  0  0  0  0  0  0  0  0  0
   56.2999   -4.9454   -8.1054 O   0  0  0  0  0  0  0  0  0  0  0  0
   55.2428   -3.7792   -9.9858 H   0  0  0  0  0  0  0  0  0  0  0  0
   56.8117   -3.9516   -2.6182 O   0  0  0  0  0  0  0  0  0  0  0  0
   56.5333   -5.2741   -2.8635 C   0  0  0  0  0  0  0  0  0  0  0  0
   57.5479   -3.5932   -3.2001 H   0  0  0  0  0  0  0  0  0  0  0  0
 19 20  1  0  0  0
 20  1  1  0  0  0
  1  2  1  0  0  0
  2  3  1  0  0  0
  3  4  1  0  0  0
  4  5  1  0  0  0
  4  6  1  0  0  0
  6  7  1  0  0  0
  3 10  1  0  0  0
 10 11  1  0  0  0
 11 12  2  0  0  0
 12 13  1  0  0  0
 13 14  2  0  0  0
 13 15  1  0  0  0
 15 16  1  0  0  0
 16 17  2  0  0  0
  6  1  1  0  0  0
 16 10  1  0  0  0
 19 21  1  0  0  0
  5  8  1  0  0  0
  7  9  1  0  0  0
 15 18  1  0  0  0
M  END
> <minimizedAffinity>
-6.03760

> <CNNscore>
0.4859519303

> <CNNaffinity>
4.2470002174

> <CNN_VS>
2.0638380051

> <CNNaffinity_variance>
0.3193201721

$$$$
[H]OC([H])([H])[C@@]1([H])O[C@]([H])(n2c([H])c([H])c(=O)n([H])c2=O)[C@]([H])(O[H])[C@]1([H])O[H]


 21 22  0  0  0  0  0  0  0  0999 V2000
   54.2272   -4.7760   -7.2169 C   0  0  0  0  0  0  0  0  0  0  0  0
   53.0227   -4.1036   -7.2035 O   0  0  0  0  0  0  0  0  0  0  0  0
   52.0405   -4.9653   -6.7857 C   0  0  0  0  0  0  0  0  0  0  0  0
   52.7477   -6.0387   -6.0062 C   0  0  0  0  0  0  0  0  0  0  0  0
   53.3573   -5.5394   -4.8527 O   0  0  0  0  0  0  0  0  0  0  0  0
   53.9062   -6.2443   -7.0007 C   0  0  0  0  0  0  0  0  0  0  0  0
   54.9509   -6.9348   -6.4290 O   0  0  0  0  0  0  0  0  0  0  0  0
   53.3037   -4.5486   -4.8193 H   0  0  0  0  0  0  0  0  0  0  0  0
   54.6751   -7.8583   -6.2983 H   0  0  0  0  0  0  0  0  0  0  0  0
   50.9572   -4.3405   -6.0832 N   0  0  0  0  0  0  0  0  0  0  0  0
   50.4597   -4.7580   -4.9267 C   0  0  0  0  0  0  0  0  0  0  0  0
   49.4177   -4.0920   -4.3277 C   0  0  0  0  0  0  0  0  0  0  0  0
   48.8934   -2.9761   -4.9507 C   0  0  0  0  0  0  0  0  0  0  0  0
   47.9413   -2.3755   -4.3943 O   0  0  0  0  0  0  0  0  0  0  0  0
   49.4070   -2.5636   -6.1227 N   0  0  0  0  0  0  0  0  0  0  0  0
   50.4240   -3.2496   -6.6646 C   0  0  0  0  0  0  0  0  0  0  0  0
   50.8788   -2.8163   -7.7829 O   0  0  0  0  0  0  0  0  0  0  0  0
   49.0235   -1.7120   -6.6203 H   0  0  0  0  0  0  0  0  0  0  0  0
   56.3167   -4.9347   -8.3612 O   0  0  0  0  0  0  0  0  0  0  0  0
   55.0019   -4.5605   -8.4961 C   0  0  0  0  0  0  0  0  0  0  0  0
   56.9343   -4.1526   -8.2360 H   0  0  0  0  0  0  0  0  0  0  0  0
 19 20  1  0  0  0
 20  1  1  0  0  0
  1  2  1  0  0  0
  2  3  1  0  0  0
  3  4  1  0  0  0
  4  5  1  0  0  0
  4  6  1  0  0  0
  6  7  1  0  0  0
  3 10  1  0  0  0
 10 11  1  0  0  0
 11 12  2  0  0  0
 12 13  1  0  0  0
 13 14  2  0  0  0
 13 15  1  0  0  0
 15 16  1  0  0  0
 16 17  2  0  0  0
  6  1  1  0  0  0
 16 10  1  0  0  0
 19 21  1  0  0  0
  5  8  1  0  0  0
  7  9  1  0  0  0
 15 18  1  0  0  0
M  END
> <minimizedAffinity>
-7.24258

> <CNNscore>
0.4785843492

> <CNNaffinity>
4.4939470291

> <CNN_VS>
2.1507327557

> <CNNaffinity_variance>
0.3883330226

$$$$
[H]OC([H])([H])[C@@]1([H])O[C@]([H])(n2c([H])c([H])c(=O)n([H])c2=O)[C@]([H])(O[H])[C@]1([H])O[H]


 21 22  0  0  0  0  0  0  0  0999 V2000
   52.5729   -5.9934   -2.9335 C   0  0  0  0  0  0  0  0  0  0  0  0
   52.9755   -5.5884   -4.1893 O   0  0  0  0  0  0  0  0  0  0  0  0
   51.9273   -5.7437   -5.0605 C   0  0  0  0  0  0  0  0  0  0  0  0
   50.6880   -5.7329   -4.2096 C   0  0  0  0  0  0  0  0  0  0  0  0
   50.4967   -4.5057   -3.5703 O   0  0  0  0  0  0  0  0  0  0  0  0
   51.2230   -6.6668   -3.1073 C   0  0  0  0  0  0  0  0  0  0  0  0
   50.4513   -6.6048   -1.9692 O   0  0  0  0  0  0  0  0  0  0  0  0
   51.2742   -3.9042   -3.7094 H   0  0  0  0  0  0  0  0  0  0  0  0
   49.5970   -7.0323   -2.1523 H   0  0  0  0  0  0  0  0  0  0  0  0
   51.9083   -4.8052   -6.1451 N   0  0  0  0  0  0  0  0  0  0  0  0
   50.9834   -3.8721   -6.3270 C   0  0  0  0  0  0  0  0  0  0  0  0
   51.0495   -3.0156   -7.3994 C   0  0  0  0  0  0  0  0  0  0  0  0
   52.0984   -3.1411   -8.2895 C   0  0  0  0  0  0  0  0  0  0  0  0
   52.1487   -2.3531   -9.2658 O   0  0  0  0  0  0  0  0  0  0  0  0
   53.0293   -4.0913   -8.0933 N   0  0  0  0  0  0  0  0  0  0  0  0
   52.9178   -4.9015   -7.0305 C   0  0  0  0  0  0  0  0  0  0  0  0
   53.8305   -5.7913   -6.8874 O   0  0  0  0  0  0  0  0  0  0  0  0
   53.8426   -4.2083   -8.7603 H   0  0  0  0  0  0  0  0  0  0  0  0
   53.0359   -8.1581   -2.0392 O   0  0  0  0  0  0  0  0  0  0  0  0
   53.5701   -6.9138   -2.2692 C   0  0  0  0  0  0  0  0  0  0  0  0
   52.7613   -8.2944   -1.0826 H   0  0  0  0  0  0  0  0  0  0  0  0
 19 20  1  0  0  0
 20  1  1  0  0  0
  1  2  1  0  0  0
  2  3  1  0  0  0
  3  4  1  0  0  0
  4  5  1  0  0  0
  4  6  1  0  0  0
  6  7  1  0  0  0
  3 10  1  0  0  0
 10 11  1  0  0  0
 11 12  2  0  0  0
 12 13  1  0  0  0
 13 14  2  0  0  0
 13 15  1  0  0  0
 15 16  1  0  0  0
 16 17  2  0  0  0
  6  1  1  0  0  0
 16 10  1  0  0  0
 19 21  1  0  0  0
  5  8  1  0  0  0
  7  9  1  0  0  0
 15 18  1  0  0  0
M  END
> <minimizedAffinity>
-6.48053

> <CNNscore>
0.4554411471

> <CNNaffinity>
4.5953283310

> <CNN_VS>
2.0929017067

> <CNNaffinity_variance>
0.3953910470

$$$$
[H]OC([H])([H])[C@@]1([H])O[C@]([H])(n2c([H])c([H])c(=O)n([H])c2=O)[C@]([H])(O[H])[C@]1([H])O[H]


 21 22  0  0  0  0  0  0  0  0999 V2000
   52.9617   -6.9984   -2.4154 C   0  0  0  0  0  0  0  0  0  0  0  0
   52.5393   -6.6229   -3.6739 O   0  0  0  0  0  0  0  0  0  0  0  0
   51.2315   -6.2159   -3.5976 C   0  0  0  0  0  0  0  0  0  0  0  0
   51.0133   -5.8195   -2.1640 C   0  0  0  0  0  0  0  0  0  0  0  0
   51.7947   -4.7221   -1.7944 O   0  0  0  0  0  0  0  0  0  0  0  0
   51.7245   -7.0330   -1.5355 C   0  0  0  0  0  0  0  0  0  0  0  0
   52.0152   -6.8204   -0.2069 O   0  0  0  0  0  0  0  0  0  0  0  0
   52.4311   -4.4762   -2.5156 H   0  0  0  0  0  0  0  0  0  0  0  0
   51.1831   -6.8335    0.2966 H   0  0  0  0  0  0  0  0  0  0  0  0
   50.8624   -5.2106   -4.5519 N   0  0  0  0  0  0  0  0  0  0  0  0
   51.5553   -4.9050   -5.6408 C   0  0  0  0  0  0  0  0  0  0  0  0
   51.1207   -3.9237   -6.4989 C   0  0  0  0  0  0  0  0  0  0  0  0
   49.9459   -3.2571   -6.2094 C   0  0  0  0  0  0  0  0  0  0  0  0
   49.5584   -2.3622   -7.0005 O   0  0  0  0  0  0  0  0  0  0  0  0
   49.2533   -3.5767   -5.1023 N   0  0  0  0  0  0  0  0  0  0  0  0
   49.7216   -4.5424   -4.2982 C   0  0  0  0  0  0  0  0  0  0  0  0
   49.0249   -4.8104   -3.2551 O   0  0  0  0  0  0  0  0  0  0  0  0
   48.3506   -3.0813   -4.8578 H   0  0  0  0  0  0  0  0  0  0  0  0
   53.0228   -9.2580   -1.6467 O   0  0  0  0  0  0  0  0  0  0  0  0
   53.6807   -8.3272   -2.4133 C   0  0  0  0  0  0  0  0  0  0  0  0
   53.4477   -9.3932   -0.7466 H   0  0  0  0  0  0  0  0  0  0  0  0
 19 20  1  0  0  0
 20  1  1  0  0  0
  1  2  1  0  0  0
  2  3  1  0  0  0
  3  4  1  0  0  0
  4  5  1  0  0  0
  4  6  1  0  0  0
  6  7  1  0  0  0
  3 10  1  0  0  0
 10 11  1  0  0  0
 11 12  2  0  0  0
 12 13  1  0  0  0
 13 14  2  0  0  0
 13 15  1  0  0  0
 15 16  1  0  0  0
 16 17  2  0  0  0
  6  1  1  0  0  0
 16 10  1  0  0  0
 19 21  1  0  0  0
  5  8  1  0  0  0
  7  9  1  0  0  0
 15 18  1  0  0  0
M  END
> <minimizedAffinity>
-6.41236

> <CNNscore>
0.4002900422

> <CNNaffinity>
4.0658950806

> <CNN_VS>
1.6275373697

> <CNNaffinity_variance>
0.2463355958

$$$$
[H]OC([H])([H])[C@@]1([H])O[C@]([H])(n2c([H])c([H])c(=O)n([H])c2=O)[C@]([H])(O[H])[C@]1([H])O[H]


 21 22  0  0  0  0  0  0  0  0999 V2000
   54.2631   -6.2979   -4.9916 C   0  0  0  0  0  0  0  0  0  0  0  0
   53.0711   -5.8447   -5.5178 O   0  0  0  0  0  0  0  0  0  0  0  0
   52.0667   -6.0979   -4.6185 C   0  0  0  0  0  0  0  0  0  0  0  0
   52.7415   -6.2186   -3.2806 C   0  0  0  0  0  0  0  0  0  0  0  0
   53.3417   -5.0220   -2.8816 O   0  0  0  0  0  0  0  0  0  0  0  0
   53.9117   -7.1025   -3.7526 C   0  0  0  0  0  0  0  0  0  0  0  0
   54.9342   -7.1275   -2.8314 O   0  0  0  0  0  0  0  0  0  0  0  0
   53.3059   -4.3442   -3.6061 H   0  0  0  0  0  0  0  0  0  0  0  0
   54.6394   -7.6374   -2.0574 H   0  0  0  0  0  0  0  0  0  0  0  0
   50.9840   -5.1575   -4.6521 N   0  0  0  0  0  0  0  0  0  0  0  0
   50.7983   -4.2454   -5.5970 C   0  0  0  0  0  0  0  0  0  0  0  0
   49.7281   -3.3852   -5.5437 C   0  0  0  0  0  0  0  0  0  0  0  0
   48.8443   -3.4849   -4.4867 C   0  0  0  0  0  0  0  0  0  0  0  0
   47.8701   -2.6936   -4.4482 O   0  0  0  0  0  0  0  0  0  0  0  0
   49.0443   -4.4140   -3.5357 N   0  0  0  0  0  0  0  0  0  0  0  0
   50.1047   -5.2289   -3.6352 C   0  0  0  0  0  0  0  0  0  0  0  0
   50.2517   -6.0979   -2.7034 O   0  0  0  0  0  0  0  0  0  0  0  0
   48.3822   -4.5110   -2.7158 H   0  0  0  0  0  0  0  0  0  0  0  0
   56.1819   -6.4478   -6.4044 O   0  0  0  0  0  0  0  0  0  0  0  0
   55.0619   -7.1185   -5.9772 C   0  0  0  0  0  0  0  0  0  0  0  0
   56.0725   -6.0484   -7.3196 H   0  0  0  0  0  0  0  0  0  0  0  0
 19 20  1  0  0  0
 20  1  1  0  0  0
  1  2  1  0  0  0
  2  3  1  0  0  0
  3  4  1  0  0  0
  4  5  1  0  0  0
  4  6  1  0  0  0
  6  7  1  0  0  0
  3 10  1  0  0  0
 10 11  1  0  0  0
 11 12  2  0  0  0
 12 13  1  0  0  0
 13 14  2  0  0  0
 13 15  1  0  0  0
 15 16  1  0  0  0
 16 17  2  0  0  0
  6  1  1  0  0  0
 16 10  1  0  0  0
 19 21  1  0  0  0
  5  8  1  0  0  0
  7  9  1  0  0  0
 15 18  1  0  0  0
M  END
> <minimizedAffinity>
-6.07953

> <CNNscore>
0.3965170383

> <CNNaffinity>
4.0856165886

> <CNN_VS>
1.6200165749

> <CNNaffinity_variance>
0.2340926677

$$$$
[H]c1nc2c(c([H])c1C([H])([H])C([H])([H])C(=O)N([H])C([H])(C([H])([H])[H])C([H])([H])[H])C([H])(N1C([H])([H])C([H])([H])C([H])([H])C([H])([H])C1([H])[H])c1c([H])c(OC([H])([H])[H])c(OC([H])([H])[H])c([H])c1C([H])([H])C([H])([H])C2([H])[H]


 35 38  0  0  0  0  0  0  0  0999 V2000
   53.5118   -4.6615   -7.4005 C   0  0  0  0  0  0  0  0  0  0  0  0
   52.7470   -3.5868   -7.7406 C   0  0  0  0  0  0  0  0  0  0  0  0
   53.0613   -2.8937   -8.8528 N   0  0  0  0  0  0  0  0  0  0  0  0
   54.1034   -3.2503   -9.6119 C   0  0  0  0  0  0  0  0  0  0  0  0
   54.9120   -4.3167   -9.3275 C   0  0  0  0  0  0  0  0  0  0  0  0
   54.5691   -5.0282   -8.1646 C   0  0  0  0  0  0  0  0  0  0  0  0
   51.5169   -2.8842   -7.1879 C   0  0  0  0  0  0  0  0  0  0  0  0
   50.2716   -3.5471   -7.7652 C   0  0  0  0  0  0  0  0  0  0  0  0
   50.2516   -5.0287   -7.4082 C   0  0  0  0  0  0  0  0  0  0  0  0
   50.8767   -5.2160   -6.0418 C   0  0  0  0  0  0  0  0  0  0  0  0
   49.8413   -5.1034   -5.1474 C   0  0  0  0  0  0  0  0  0  0  0  0
   50.0778   -5.2175   -3.7949 C   0  0  0  0  0  0  0  0  0  0  0  0
   51.3547   -5.4452   -3.3229 C   0  0  0  0  0  0  0  0  0  0  0  0
   52.4235   -5.5626   -4.2231 C   0  0  0  0  0  0  0  0  0  0  0  0
   52.1554   -5.4454   -5.5483 C   0  0  0  0  0  0  0  0  0  0  0  0
   53.4444   -5.6120   -6.2554 C   0  0  0  0  0  0  0  0  0  0  0  0
   54.6111   -5.8247   -5.5601 N   0  0  0  0  0  0  0  0  0  0  0  0
   55.1436   -7.0476   -5.2307 C   0  0  0  0  0  0  0  0  0  0  0  0
   56.5912   -6.9229   -4.8135 C   0  0  0  0  0  0  0  0  0  0  0  0
   56.7481   -6.0176   -3.5977 C   0  0  0  0  0  0  0  0  0  0  0  0
   55.8332   -4.8219   -3.7618 C   0  0  0  0  0  0  0  0  0  0  0  0
   55.3284   -4.6896   -5.1846 C   0  0  0  0  0  0  0  0  0  0  0  0
   49.0013   -5.0986   -2.9123 O   0  0  0  0  0  0  0  0  0  0  0  0
   47.8505   -4.3701   -3.2796 C   0  0  0  0  0  0  0  0  0  0  0  0
   51.5361   -5.5506   -1.9500 O   0  0  0  0  0  0  0  0  0  0  0  0
   52.8299   -5.3259   -1.4093 C   0  0  0  0  0  0  0  0  0  0  0  0
   56.0984   -4.7239  -10.1199 C   0  0  0  0  0  0  0  0  0  0  0  0
   56.7255   -3.6726  -10.9456 C   0  0  0  0  0  0  0  0  0  0  0  0
   57.2983   -4.0582  -12.2246 C   0  0  0  0  0  0  0  0  0  0  0  0
   56.6732   -3.6204  -13.4304 N   0  0  0  0  0  0  0  0  0  0  0  0
   58.3147   -4.7565  -12.3417 O   0  0  0  0  0  0  0  0  0  0  0  0
   55.8185   -3.0321  -13.3713 H   0  0  0  0  0  0  0  0  0  0  0  0
   57.2215   -3.9915  -14.7165 C   0  0  0  0  0  0  0  0  0  0  0  0
   56.0822   -4.3203  -15.6860 C   0  0  0  0  0  0  0  0  0  0  0  0
   58.0800   -2.9367  -15.3411 C   0  0  0  0  0  0  0  0  0  0  0  0
  1  2  1  0  0  0
  2  3  2  0  0  0
  3  4  1  0  0  0
  4  5  2  0  0  0
  5 27  1  0  0  0
 27 28  1  0  0  0
 28 29  1  0  0  0
 29 30  1  0  0  0
 30 33  1  0  0  0
 33 34  1  0  0  0
 33 35  1  0  0  0
 29 31  2  0  0  0
  5  6  1  0  0  0
  2  7  1  0  0  0
  7  8  1  0  0  0
  8  9  1  0  0  0
  9 10  1  0  0  0
 10 11  2  0  0  0
 11 12  1  0  0  0
 12 23  1  0  0  0
 23 24  1  0  0  0
 12 13  2  0  0  0
 13 25  1  0  0  0
 25 26  1  0  0  0
 13 14  1  0  0  0
 14 15  2  0  0  0
 15 16  1  0  0  0
 16 17  1  0  0  0
 17 18  1  0  0  0
 18 19  1  0  0  0
 19 20  1  0  0  0
 20 21  1  0  0  0
 21 22  1  0  0  0
  6  1  2  0  0  0
 15 10  1  0  0  0
 22 17  1  0  0  0
 16  1  1  0  0  0
 30 32  1  0  0  0
M  END
> <minimizedAffinity>
-9.03431

> <CNNscore>
0.6330911517

> <CNNaffinity>
7.9220571518

> <CNN_VS>
5.0153841972

> <CNNaffinity_variance>
0.1580656618

$$$$
[H]c1nc2c(c([H])c1C([H])([H])C([H])([H])C(=O)N([H])C([H])(C([H])([H])[H])C([H])([H])[H])C([H])(N1C([H])([H])C([H])([H])C([H])([H])C([H])([H])C1([H])[H])c1c([H])c(OC([H])([H])[H])c(OC([H])([H])[H])c([H])c1C([H])([H])C([H])([H])C2([H])[H]


 35 38  0  0  0  0  0  0  0  0999 V2000
   53.6694   -4.7535   -7.2153 C   0  0  0  0  0  0  0  0  0  0  0  0
   52.8828   -3.7153   -7.6140 C   0  0  0  0  0  0  0  0  0  0  0  0
   53.2173   -3.0409   -8.7317 N   0  0  0  0  0  0  0  0  0  0  0  0
   54.3000   -3.3807   -9.4400 C   0  0  0  0  0  0  0  0  0  0  0  0
   55.1323   -4.4106   -9.0955 C   0  0  0  0  0  0  0  0  0  0  0  0
   54.7678   -5.1031   -7.9276 C   0  0  0  0  0  0  0  0  0  0  0  0
   51.6088   -3.0417   -7.1286 C   0  0  0  0  0  0  0  0  0  0  0  0
   50.4104   -3.7623   -7.7352 C   0  0  0  0  0  0  0  0  0  0  0  0
   50.4263   -5.2338   -7.3388 C   0  0  0  0  0  0  0  0  0  0  0  0
   51.0028   -5.3637   -5.9446 C   0  0  0  0  0  0  0  0  0  0  0  0
   49.9296   -5.2639   -5.0943 C   0  0  0  0  0  0  0  0  0  0  0  0
   50.1162   -5.3344   -3.7311 C   0  0  0  0  0  0  0  0  0  0  0  0
   51.3804   -5.5052   -3.2040 C   0  0  0  0  0  0  0  0  0  0  0  0
   52.4873   -5.6089   -4.0588 C   0  0  0  0  0  0  0  0  0  0  0  0
   52.2680   -5.5356   -5.3961 C   0  0  0  0  0  0  0  0  0  0  0  0
   53.5888   -5.6757   -6.0480 C   0  0  0  0  0  0  0  0  0  0  0  0
   54.7337   -5.8295   -5.3026 N   0  0  0  0  0  0  0  0  0  0  0  0
   55.2835   -7.0238   -4.9037 C   0  0  0  0  0  0  0  0  0  0  0  0
   56.7109   -6.8446   -4.4398 C   0  0  0  0  0  0  0  0  0  0  0  0
   56.8000   -5.8870   -3.2577 C   0  0  0  0  0  0  0  0  0  0  0  0
   55.8627   -4.7232   -3.5041 C   0  0  0  0  0  0  0  0  0  0  0  0
   55.4083   -4.6618   -4.9486 C   0  0  0  0  0  0  0  0  0  0  0  0
   49.0023   -5.2300   -2.8943 O   0  0  0  0  0  0  0  0  0  0  0  0
   47.8732   -4.4846   -3.2938 C   0  0  0  0  0  0  0  0  0  0  0  0
   51.5108   -5.5685   -1.8229 O   0  0  0  0  0  0  0  0  0  0  0  0
   52.7999   -5.4143   -1.2473 C   0  0  0  0  0  0  0  0  0  0  0  0
   56.3621   -4.7968   -9.8300 C   0  0  0  0  0  0  0  0  0  0  0  0
   57.5375   -5.1374   -9.0038 C   0  0  0  0  0  0  0  0  0  0  0  0
   58.7336   -5.6130   -9.6790 C   0  0  0  0  0  0  0  0  0  0  0  0
   59.7358   -6.2956   -8.9267 N   0  0  0  0  0  0  0  0  0  0  0  0
   58.9467   -5.4627  -10.8899 O   0  0  0  0  0  0  0  0  0  0  0  0
   59.5910   -6.4408   -7.9078 H   0  0  0  0  0  0  0  0  0  0  0  0
   60.9365   -6.7774   -9.5736 C   0  0  0  0  0  0  0  0  0  0  0  0
   62.1629   -6.3689   -8.7520 C   0  0  0  0  0  0  0  0  0  0  0  0
   60.9728   -8.2612   -9.7655 C   0  0  0  0  0  0  0  0  0  0  0  0
  1  2  1  0  0  0
  2  3  2  0  0  0
  3  4  1  0  0  0
  4  5  2  0  0  0
  5 27  1  0  0  0
 27 28  1  0  0  0
 28 29  1  0  0  0
 29 30  1  0  0  0
 30 33  1  0  0  0
 33 34  1  0  0  0
 33 35  1  0  0  0
 29 31  2  0  0  0
  5  6  1  0  0  0
  2  7  1  0  0  0
  7  8  1  0  0  0
  8  9  1  0  0  0
  9 10  1  0  0  0
 10 11  2  0  0  0
 11 12  1  0  0  0
 12 23  1  0  0  0
 23 24  1  0  0  0
 12 13  2  0  0  0
 13 25  1  0  0  0
 25 26  1  0  0  0
 13 14  1  0  0  0
 14 15  2  0  0  0
 15 16  1  0  0  0
 16 17  1  0  0  0
 17 18  1  0  0  0
 18 19  1  0  0  0
 19 20  1  0  0  0
 20 21  1  0  0  0
 21 22  1  0  0  0
  6  1  2  0  0  0
 15 10  1  0  0  0
 22 17  1  0  0  0
 16  1  1  0  0  0
 30 32  1  0  0  0
M  END
> <minimizedAffinity>
-9.01369

> <CNNscore>
0.4954124987

> <CNNaffinity>
7.6768369675

> <CNN_VS>
3.8032009602

> <CNNaffinity_variance>
0.1426565349

$$$$
[H]c1nc2c(c([H])c1C([H])([H])C([H])([H])C(=O)N([H])C([H])(C([H])([H])[H])C([H])([H])[H])C([H])(N1C([H])([H])C([H])([H])C([H])([H])C([H])([H])C1([H])[H])c1c([H])c(OC([H])([H])[H])c(OC([H])([H])[H])c([H])c1C([H])([H])C([H])([H])C2([H])[H]


 35 38  0  0  0  0  0  0  0  0999 V2000
   55.7168   -4.9346   -7.0550 C   0  0  0  0  0  0  0  0  0  0  0  0
   56.9956   -4.5855   -6.7413 C   0  0  0  0  0  0  0  0  0  0  0  0
   57.3645   -4.5731   -5.4453 N   0  0  0  0  0  0  0  0  0  0  0  0
   56.4954   -4.8969   -4.4813 C   0  0  0  0  0  0  0  0  0  0  0  0
   55.1980   -5.2553   -4.7268 C   0  0  0  0  0  0  0  0  0  0  0  0
   54.8310   -5.2634   -6.0838 C   0  0  0  0  0  0  0  0  0  0  0  0
   58.2508   -4.1828   -7.4994 C   0  0  0  0  0  0  0  0  0  0  0  0
   59.0265   -5.4418   -7.8692 C   0  0  0  0  0  0  0  0  0  0  0  0
   58.1580   -6.3640   -8.7167 C   0  0  0  0  0  0  0  0  0  0  0  0
   57.2472   -5.5234   -9.5866 C   0  0  0  0  0  0  0  0  0  0  0  0
   57.9484   -5.3054  -10.7466 C   0  0  0  0  0  0  0  0  0  0  0  0
   57.3950   -4.5544  -11.7605 C   0  0  0  0  0  0  0  0  0  0  0  0
   56.1329   -4.0126  -11.6236 C   0  0  0  0  0  0  0  0  0  0  0  0
   55.4035   -4.2258  -10.4450 C   0  0  0  0  0  0  0  0  0  0  0  0
   55.9781   -4.9703   -9.4666 C   0  0  0  0  0  0  0  0  0  0  0  0
   55.0008   -5.0352   -8.3576 C   0  0  0  0  0  0  0  0  0  0  0  0
   53.7865   -4.3966   -8.4454 N   0  0  0  0  0  0  0  0  0  0  0  0
   53.5909   -3.0718   -8.7529 C   0  0  0  0  0  0  0  0  0  0  0  0
   52.1526   -2.8014   -9.1309 C   0  0  0  0  0  0  0  0  0  0  0  0
   51.1994   -3.1486   -7.9937 C   0  0  0  0  0  0  0  0  0  0  0  0
   51.6532   -4.4468   -7.3593 C   0  0  0  0  0  0  0  0  0  0  0  0
   52.6535   -5.1801   -8.2303 C   0  0  0  0  0  0  0  0  0  0  0  0
   58.1354   -4.3526  -12.9280 O   0  0  0  0  0  0  0  0  0  0  0  0
   59.3990   -3.7275  -12.8762 C   0  0  0  0  0  0  0  0  0  0  0  0
   55.6244   -3.2632  -12.6764 O   0  0  0  0  0  0  0  0  0  0  0  0
   56.2635   -3.3362  -13.9425 C   0  0  0  0  0  0  0  0  0  0  0  0
   54.1920   -5.5848   -3.6874 C   0  0  0  0  0  0  0  0  0  0  0  0
   54.2020   -6.9730   -3.1843 C   0  0  0  0  0  0  0  0  0  0  0  0
   55.4660   -7.5254   -2.7262 C   0  0  0  0  0  0  0  0  0  0  0  0
   55.8922   -7.2778   -1.3870 N   0  0  0  0  0  0  0  0  0  0  0  0
   56.2150   -8.2117   -3.4350 O   0  0  0  0  0  0  0  0  0  0  0  0
   55.2890   -6.7064   -0.7627 H   0  0  0  0  0  0  0  0  0  0  0  0
   57.1467   -7.8141   -0.9063 C   0  0  0  0  0  0  0  0  0  0  0  0
   57.8997   -6.7362   -0.1209 C   0  0  0  0  0  0  0  0  0  0  0  0
   56.9995   -9.0177   -0.0293 C   0  0  0  0  0  0  0  0  0  0  0  0
  1  2  1  0  0  0
  2  3  2  0  0  0
  3  4  1  0  0  0
  4  5  2  0  0  0
  5 27  1  0  0  0
 27 28  1  0  0  0
 28 29  1  0  0  0
 29 30  1  0  0  0
 30 33  1  0  0  0
 33 34  1  0  0  0
 33 35  1  0  0  0
 29 31  2  0  0  0
  5  6  1  0  0  0
  2  7  1  0  0  0
  7  8  1  0  0  0
  8  9  1  0  0  0
  9 10  1  0  0  0
 10 11  2  0  0  0
 11 12  1  0  0  0
 12 23  1  0  0  0
 23 24  1  0  0  0
 12 13  2  0  0  0
 13 25  1  0  0  0
 25 26  1  0  0  0
 13 14  1  0  0  0
 14 15  2  0  0  0
 15 16  1  0  0  0
 16 17  1  0  0  0
 17 18  1  0  0  0
 18 19  1  0  0  0
 19 20  1  0  0  0
 20 21  1  0  0  0
 21 22  1  0  0  0
  6  1  2  0  0  0
 15 10  1  0  0  0
 22 17  1  0  0  0
 16  1  1  0  0  0
 30 32  1  0  0  0
M  END
> <minimizedAffinity>
-1.63542

> <CNNscore>
0.4531261921

> <CNNaffinity>
7.1060791016

> <CNN_VS>
3.2199506760

> <CNNaffinity_variance>
0.4012436867

$$$$
[H]c1nc2c(c([H])c1C([H])([H])C([H])([H])C(=O)N([H])C([H])(C([H])([H])[H])C([H])([H])[H])C([H])(N1C([H])([H])C([H])([H])C([H])([H])C([H])([H])C1([H])[H])c1c([H])c(OC([H])([H])[H])c(OC([H])([H])[H])c([H])c1C([H])([H])C([H])([H])C2([H])[H]


 35 38  0  0  0  0  0  0  0  0999 V2000
   56.1543   -5.4040   -7.8933 C   0  0  0  0  0  0  0  0  0  0  0  0
   57.4383   -5.2124   -7.4805 C   0  0  0  0  0  0  0  0  0  0  0  0
   57.7615   -5.5137   -6.2075 N   0  0  0  0  0  0  0  0  0  0  0  0
   56.8428   -5.9924   -5.3612 C   0  0  0  0  0  0  0  0  0  0  0  0
   55.5374   -6.2073   -5.7100 C   0  0  0  0  0  0  0  0  0  0  0  0
   55.2183   -5.8882   -7.0414 C   0  0  0  0  0  0  0  0  0  0  0  0
   58.7392   -4.7265   -8.1000 C   0  0  0  0  0  0  0  0  0  0  0  0
   59.4583   -5.9149   -8.7278 C   0  0  0  0  0  0  0  0  0  0  0  0
   58.5716   -6.5689   -9.7809 C   0  0  0  0  0  0  0  0  0  0  0  0
   57.7387   -5.5008  -10.4580 C   0  0  0  0  0  0  0  0  0  0  0  0
   58.4910   -5.0708  -11.5228 C   0  0  0  0  0  0  0  0  0  0  0  0
   58.0150   -4.0792  -12.3525 C   0  0  0  0  0  0  0  0  0  0  0  0
   56.7800   -3.5065  -12.1244 C   0  0  0  0  0  0  0  0  0  0  0  0
   55.9991   -3.9343  -11.0410 C   0  0  0  0  0  0  0  0  0  0  0  0
   56.4979   -4.9130  -10.2440 C   0  0  0  0  0  0  0  0  0  0  0  0
   55.4801   -5.1659   -9.2003 C   0  0  0  0  0  0  0  0  0  0  0  0
   54.3060   -4.4516   -9.1682 N   0  0  0  0  0  0  0  0  0  0  0  0
   54.1695   -3.1096   -9.4295 C   0  0  0  0  0  0  0  0  0  0  0  0
   52.7242   -2.7411   -9.6745 C   0  0  0  0  0  0  0  0  0  0  0  0
   51.8521   -3.0588   -8.4658 C   0  0  0  0  0  0  0  0  0  0  0  0
   52.2751   -4.3988   -7.9009 C   0  0  0  0  0  0  0  0  0  0  0  0
   53.1480   -5.1691   -8.8712 C   0  0  0  0  0  0  0  0  0  0  0  0
   58.8058   -3.6656  -13.4275 O   0  0  0  0  0  0  0  0  0  0  0  0
   58.4385   -3.9842  -14.7517 C   0  0  0  0  0  0  0  0  0  0  0  0
   56.3501   -2.5105  -12.9914 O   0  0  0  0  0  0  0  0  0  0  0  0
   55.6755   -2.8828  -14.1844 C   0  0  0  0  0  0  0  0  0  0  0  0
   54.4790   -6.7003   -4.7945 C   0  0  0  0  0  0  0  0  0  0  0  0
   53.9766   -5.7354   -3.7961 C   0  0  0  0  0  0  0  0  0  0  0  0
   54.8208   -5.4326   -2.6523 C   0  0  0  0  0  0  0  0  0  0  0  0
   55.7729   -6.3997   -2.2112 N   0  0  0  0  0  0  0  0  0  0  0  0
   54.7688   -4.3685   -2.0203 O   0  0  0  0  0  0  0  0  0  0  0  0
   55.8454   -7.3043   -2.7178 H   0  0  0  0  0  0  0  0  0  0  0  0
   56.6239   -6.1246   -1.0744 C   0  0  0  0  0  0  0  0  0  0  0  0
   57.9178   -5.4572   -1.5500 C   0  0  0  0  0  0  0  0  0  0  0  0
   55.9946   -5.2453   -0.0398 C   0  0  0  0  0  0  0  0  0  0  0  0
  1  2  1  0  0  0
  2  3  2  0  0  0
  3  4  1  0  0  0
  4  5  2  0  0  0
  5 27  1  0  0  0
 27 28  1  0  0  0
 28 29  1  0  0  0
 29 30  1  0  0  0
 30 33  1  0  0  0
 33 34  1  0  0  0
 33 35  1  0  0  0
 29 31  2  0  0  0
  5  6  1  0  0  0
  2  7  1  0  0  0
  7  8  1  0  0  0
  8  9  1  0  0  0
  9 10  1  0  0  0
 10 11  2  0  0  0
 11 12  1  0  0  0
 12 23  1  0  0  0
 23 24  1  0  0  0
 12 13  2  0  0  0
 13 25  1  0  0  0
 25 26  1  0  0  0
 13 14  1  0  0  0
 14 15  2  0  0  0
 15 16  1  0  0  0
 16 17  1  0  0  0
 17 18  1  0  0  0
 18 19  1  0  0  0
 19 20  1  0  0  0
 20 21  1  0  0  0
 21 22  1  0  0  0
  6  1  2  0  0  0
 15 10  1  0  0  0
 22 17  1  0  0  0
 16  1  1  0  0  0
 30 32  1  0  0  0
M  END
> <minimizedAffinity>
-1.17888

> <CNNscore>
0.4382627606

> <CNNaffinity>
6.9600362778

> <CNN_VS>
3.0503246784

> <CNNaffinity_variance>
0.4285550117

$$$$
[H]c1nc2c(c([H])c1C([H])([H])C([H])([H])C(=O)N([H])C([H])(C([H])([H])[H])C([H])([H])[H])C([H])(N1C([H])([H])C([H])([H])C([H])([H])C([H])([H])C1([H])[H])c1c([H])c(OC([H])([H])[H])c(OC([H])([H])[H])c([H])c1C([H])([H])C([H])([H])C2([H])[H]


 35 38  0  0  0  0  0  0  0  0999 V2000
   56.4599   -4.4879  -10.3414 C   0  0  0  0  0  0  0  0  0  0  0  0
   57.3081   -5.5439  -10.4868 C   0  0  0  0  0  0  0  0  0  0  0  0
   57.8100   -5.8084  -11.7091 N   0  0  0  0  0  0  0  0  0  0  0  0
   57.4847   -5.0514  -12.7629 C   0  0  0  0  0  0  0  0  0  0  0  0
   56.6390   -3.9786  -12.6869 C   0  0  0  0  0  0  0  0  0  0  0  0
   56.1257   -3.7170  -11.4046 C   0  0  0  0  0  0  0  0  0  0  0  0
   57.9241   -6.6012   -9.5841 C   0  0  0  0  0  0  0  0  0  0  0  0
   59.2208   -6.0533   -8.9995 C   0  0  0  0  0  0  0  0  0  0  0  0
   58.9458   -4.7731   -8.2195 C   0  0  0  0  0  0  0  0  0  0  0  0
   57.5823   -4.8745   -7.5687 C   0  0  0  0  0  0  0  0  0  0  0  0
   57.8056   -5.4410   -6.3382 C   0  0  0  0  0  0  0  0  0  0  0  0
   56.7516   -5.6821   -5.4843 C   0  0  0  0  0  0  0  0  0  0  0  0
   55.4615   -5.3589   -5.8537 C   0  0  0  0  0  0  0  0  0  0  0  0
   55.2163   -4.7797   -7.1071 C   0  0  0  0  0  0  0  0  0  0  0  0
   56.2771   -4.5556   -7.9233 C   0  0  0  0  0  0  0  0  0  0  0  0
   55.7372   -3.9440   -9.1577 C   0  0  0  0  0  0  0  0  0  0  0  0
   54.3888   -3.7212   -9.3064 N   0  0  0  0  0  0  0  0  0  0  0  0
   53.6899   -2.6425   -8.8208 C   0  0  0  0  0  0  0  0  0  0  0  0
   52.3340   -2.5243   -9.4784 C   0  0  0  0  0  0  0  0  0  0  0  0
   51.4823   -3.7640   -9.2334 C   0  0  0  0  0  0  0  0  0  0  0  0
   52.3597   -4.9907   -9.3718 C   0  0  0  0  0  0  0  0  0  0  0  0
   53.6786   -4.6671  -10.0445 C   0  0  0  0  0  0  0  0  0  0  0  0
   57.0141   -6.2591   -4.2393 O   0  0  0  0  0  0  0  0  0  0  0  0
   55.9782   -6.8646   -3.4974 C   0  0  0  0  0  0  0  0  0  0  0  0
   54.4370   -5.6248   -4.9546 O   0  0  0  0  0  0  0  0  0  0  0  0
   53.1610   -5.9937   -5.4573 C   0  0  0  0  0  0  0  0  0  0  0  0
   56.2225   -3.1366  -13.8352 C   0  0  0  0  0  0  0  0  0  0  0  0
   56.1970   -3.7975  -15.1554 C   0  0  0  0  0  0  0  0  0  0  0  0
   55.6778   -3.0464  -16.2864 C   0  0  0  0  0  0  0  0  0  0  0  0
   54.6920   -2.0392  -16.0628 N   0  0  0  0  0  0  0  0  0  0  0  0
   56.0410   -3.2252  -17.4571 O   0  0  0  0  0  0  0  0  0  0  0  0
   54.3634   -1.8607  -15.0930 H   0  0  0  0  0  0  0  0  0  0  0  0
   54.1571   -1.2785  -17.1708 C   0  0  0  0  0  0  0  0  0  0  0  0
   52.8253   -1.8884  -17.6182 C   0  0  0  0  0  0  0  0  0  0  0  0
   53.9316    0.1689  -16.8647 C   0  0  0  0  0  0  0  0  0  0  0  0
  1  2  1  0  0  0
  2  3  2  0  0  0
  3  4  1  0  0  0
  4  5  2  0  0  0
  5 27  1  0  0  0
 27 28  1  0  0  0
 28 29  1  0  0  0
 29 30  1  0  0  0
 30 33  1  0  0  0
 33 34  1  0  0  0
 33 35  1  0  0  0
 29 31  2  0  0  0
  5  6  1  0  0  0
  2  7  1  0  0  0
  7  8  1  0  0  0
  8  9  1  0  0  0
  9 10  1  0  0  0
 10 11  2  0  0  0
 11 12  1  0  0  0
 12 23  1  0  0  0
 23 24  1  0  0  0
 12 13  2  0  0  0
 13 25  1  0  0  0
 25 26  1  0  0  0
 13 14  1  0  0  0
 14 15  2  0  0  0
 15 16  1  0  0  0
 16 17  1  0  0  0
 17 18  1  0  0  0
 18 19  1  0  0  0
 19 20  1  0  0  0
 20 21  1  0  0  0
 21 22  1  0  0  0
  6  1  2  0  0  0
 15 10  1  0  0  0
 22 17  1  0  0  0
 16  1  1  0  0  0
 30 32  1  0  0  0
M  END
> <minimizedAffinity>
3.89177

> <CNNscore>
0.4334405363

> <CNNaffinity>
6.6096487045

> <CNN_VS>
2.8648896217

> <CNNaffinity_variance>
0.3003343642

$$$$
[H]c1nc2c(c([H])c1C([H])([H])C([H])([H])C(=O)N([H])C([H])(C([H])([H])[H])C([H])([H])[H])C([H])(N1C([H])([H])C([H])([H])C([H])([H])C([H])([H])C1([H])[H])c1c([H])c(OC([H])([H])[H])c(OC([H])([H])[H])c([H])c1C([H])([H])C([H])([H])C2([H])[H]


 35 38  0  0  0  0  0  0  0  0999 V2000
   62.1791   -9.2203   -3.7250 C   0  0  0  0  0  0  0  0  0  0  0  0
   62.1984   -7.8628   -3.6132 C   0  0  0  0  0  0  0  0  0  0  0  0
   61.6306   -7.2935   -2.5318 N   0  0  0  0  0  0  0  0  0  0  0  0
   61.0578   -8.0427   -1.5831 C   0  0  0  0  0  0  0  0  0  0  0  0
   61.0027   -9.4089   -1.6338 C   0  0  0  0  0  0  0  0  0  0  0  0
   61.6003   -9.9855   -2.7681 C   0  0  0  0  0  0  0  0  0  0  0  0
   62.7383   -6.6932   -4.4211 C   0  0  0  0  0  0  0  0  0  0  0  0
   64.1784   -6.4271   -3.9981 C   0  0  0  0  0  0  0  0  0  0  0  0
   65.0293   -7.6722   -4.2184 C   0  0  0  0  0  0  0  0  0  0  0  0
   64.5222   -8.4071   -5.4414 C   0  0  0  0  0  0  0  0  0  0  0  0
   65.2209   -7.8814   -6.4998 C   0  0  0  0  0  0  0  0  0  0  0  0
   64.9864   -8.3351   -7.7793 C   0  0  0  0  0  0  0  0  0  0  0  0
   64.0485   -9.3204   -8.0133 C   0  0  0  0  0  0  0  0  0  0  0  0
   63.3262   -9.8679   -6.9433 C   0  0  0  0  0  0  0  0  0  0  0  0
   63.5822   -9.3984   -5.6960 C   0  0  0  0  0  0  0  0  0  0  0  0
   62.6948  -10.1425   -4.7752 C   0  0  0  0  0  0  0  0  0  0  0  0
   61.8191  -11.0911   -5.2479 N   0  0  0  0  0  0  0  0  0  0  0  0
   60.7078  -10.8514   -6.0195 C   0  0  0  0  0  0  0  0  0  0  0  0
   60.2021  -12.1212   -6.6651 C   0  0  0  0  0  0  0  0  0  0  0  0
   59.8146  -13.1638   -5.6233 C   0  0  0  0  0  0  0  0  0  0  0  0
   60.8536  -13.1583   -4.5215 C   0  0  0  0  0  0  0  0  0  0  0  0
   62.1099  -12.4183   -4.9352 C   0  0  0  0  0  0  0  0  0  0  0  0
   65.7156   -7.7791   -8.8335 O   0  0  0  0  0  0  0  0  0  0  0  0
   65.5072   -6.4386   -9.2203 C   0  0  0  0  0  0  0  0  0  0  0  0
   63.8519   -9.7394   -9.3227 O   0  0  0  0  0  0  0  0  0  0  0  0
   62.8887  -10.7501   -9.5827 C   0  0  0  0  0  0  0  0  0  0  0  0
   60.3454  -10.2749   -0.6243 C   0  0  0  0  0  0  0  0  0  0  0  0
   58.8695  -10.2419   -0.5958 C   0  0  0  0  0  0  0  0  0  0  0  0
   58.2055   -9.0070   -0.9792 C   0  0  0  0  0  0  0  0  0  0  0  0
   57.6697   -8.8817   -2.2959 N   0  0  0  0  0  0  0  0  0  0  0  0
   58.0701   -8.0346   -0.2240 O   0  0  0  0  0  0  0  0  0  0  0  0
   57.7639   -9.6778   -2.9572 H   0  0  0  0  0  0  0  0  0  0  0  0
   57.0058   -7.6630   -2.7038 C   0  0  0  0  0  0  0  0  0  0  0  0
   55.4897   -7.8802   -2.7097 C   0  0  0  0  0  0  0  0  0  0  0  0
   57.3078   -6.4832   -1.8340 C   0  0  0  0  0  0  0  0  0  0  0  0
  1  2  1  0  0  0
  2  3  2  0  0  0
  3  4  1  0  0  0
  4  5  2  0  0  0
  5 27  1  0  0  0
 27 28  1  0  0  0
 28 29  1  0  0  0
 29 30  1  0  0  0
 30 33  1  0  0  0
 33 34  1  0  0  0
 33 35  1  0  0  0
 29 31  2  0  0  0
  5  6  1  0  0  0
  2  7  1  0  0  0
  7  8  1  0  0  0
  8  9  1  0  0  0
  9 10  1  0  0  0
 10 11  2  0  0  0
 11 12  1  0  0  0
 12 23  1  0  0  0
 23 24  1  0  0  0
 12 13  2  0  0  0
 13 25  1  0  0  0
 25 26  1  0  0  0
 13 14  1  0  0  0
 14 15  2  0  0  0
 15 16  1  0  0  0
 16 17  1  0  0  0
 17 18  1  0  0  0
 18 19  1  0  0  0
 19 20  1  0  0  0
 20 21  1  0  0  0
 21 22  1  0  0  0
  6  1  2  0  0  0
 15 10  1  0  0  0
 22 17  1  0  0  0
 16  1  1  0  0  0
 30 32  1  0  0  0
M  END
> <minimizedAffinity>
-2.97590

> <CNNscore>
0.4209252000

> <CNNaffinity>
5.9379477501

> <CNN_VS>
2.4994318485

> <CNNaffinity_variance>
1.5115599632

$$$$
[H]c1nc2c(c([H])c1C([H])([H])C([H])([H])C(=O)N([H])C([H])(C([H])([H])[H])C([H])([H])[H])C([H])(N1C([H])([H])C([H])([H])C([H])([H])C([H])([H])C1([H])[H])c1c([H])c(OC([H])([H])[H])c(OC([H])([H])[H])c([H])c1C([H])([H])C([H])([H])C2([H])[H]


 35 38  0  0  0  0  0  0  0  0999 V2000
   53.2721   -6.4201   -4.3860 C   0  0  0  0  0  0  0  0  0  0  0  0
   52.2174   -7.0879   -3.8407 C   0  0  0  0  0  0  0  0  0  0  0  0
   52.4554   -8.2162   -3.1435 N   0  0  0  0  0  0  0  0  0  0  0  0
   53.7017   -8.6760   -2.9867 C   0  0  0  0  0  0  0  0  0  0  0  0
   54.8041   -8.0556   -3.5080 C   0  0  0  0  0  0  0  0  0  0  0  0
   54.5373   -6.8801   -4.2314 C   0  0  0  0  0  0  0  0  0  0  0  0
   50.7094   -6.9059   -3.7695 C   0  0  0  0  0  0  0  0  0  0  0  0
   50.3755   -6.0429   -2.5582 C   0  0  0  0  0  0  0  0  0  0  0  0
   51.0763   -4.6937   -2.6651 C   0  0  0  0  0  0  0  0  0  0  0  0
   51.1523   -4.2906   -4.1227 C   0  0  0  0  0  0  0  0  0  0  0  0
   50.0012   -3.5837   -4.3672 C   0  0  0  0  0  0  0  0  0  0  0  0
   49.7535   -3.0748   -5.6234 C   0  0  0  0  0  0  0  0  0  0  0  0
   50.6563   -3.2690   -6.6493 C   0  0  0  0  0  0  0  0  0  0  0  0
   51.8369   -3.9889   -6.4162 C   0  0  0  0  0  0  0  0  0  0  0  0
   52.0496   -4.4759   -5.1675 C   0  0  0  0  0  0  0  0  0  0  0  0
   53.3513   -5.1783   -5.2052 C   0  0  0  0  0  0  0  0  0  0  0  0
   54.0837   -5.2505   -6.3664 N   0  0  0  0  0  0  0  0  0  0  0  0
   53.7821   -6.0181   -7.4653 C   0  0  0  0  0  0  0  0  0  0  0  0
   54.5690   -5.5760   -8.6778 C   0  0  0  0  0  0  0  0  0  0  0  0
   56.0706   -5.6898   -8.4435 C   0  0  0  0  0  0  0  0  0  0  0  0
   56.3807   -5.2089   -7.0412 C   0  0  0  0  0  0  0  0  0  0  0  0
   55.2193   -4.4447   -6.4378 C   0  0  0  0  0  0  0  0  0  0  0  0
   48.5727   -2.3596   -5.8377 O   0  0  0  0  0  0  0  0  0  0  0  0
   47.8086   -2.5709   -7.0046 C   0  0  0  0  0  0  0  0  0  0  0  0
   50.3557   -2.7352   -7.8956 O   0  0  0  0  0  0  0  0  0  0  0  0
   51.0275   -3.2420   -9.0397 C   0  0  0  0  0  0  0  0  0  0  0  0
   56.1979   -8.5504   -3.3904 C   0  0  0  0  0  0  0  0  0  0  0  0
   57.0813   -7.8044   -2.4721 C   0  0  0  0  0  0  0  0  0  0  0  0
   56.5828   -6.5647   -1.8998 C   0  0  0  0  0  0  0  0  0  0  0  0
   55.7761   -6.6129   -0.7237 N   0  0  0  0  0  0  0  0  0  0  0  0
   56.8159   -5.4444   -2.3741 O   0  0  0  0  0  0  0  0  0  0  0  0
   55.5601   -7.5357   -0.2971 H   0  0  0  0  0  0  0  0  0  0  0  0
   55.2655   -5.3943   -0.1349 C   0  0  0  0  0  0  0  0  0  0  0  0
   56.1486   -4.2135   -0.5492 C   0  0  0  0  0  0  0  0  0  0  0  0
   53.8523   -5.0794   -0.5133 C   0  0  0  0  0  0  0  0  0  0  0  0
  1  2  1  0  0  0
  2  3  2  0  0  0
  3  4  1  0  0  0
  4  5  2  0  0  0
  5 27  1  0  0  0
 27 28  1  0  0  0
 28 29  1  0  0  0
 29 30  1  0  0  0
 30 33  1  0  0  0
 33 34  1  0  0  0
 33 35  1  0  0  0
 29 31  2  0  0  0
  5  6  1  0  0  0
  2  7  1  0  0  0
  7  8  1  0  0  0
  8  9  1  0  0  0
  9 10  1  0  0  0
 10 11  2  0  0  0
 11 12  1  0  0  0
 12 23  1  0  0  0
 23 24  1  0  0  0
 12 13  2  0  0  0
 13 25  1  0  0  0
 25 26  1  0  0  0
 13 14  1  0  0  0
 14 15  2  0  0  0
 15 16  1  0  0  0
 16 17  1  0  0  0
 17 18  1  0  0  0
 18 19  1  0  0  0
 19 20  1  0  0  0
 20 21  1  0  0  0
 21 22  1  0  0  0
  6  1  2  0  0  0
 15 10  1  0  0  0
 22 17  1  0  0  0
 16  1  1  0  0  0
 30 32  1  0  0  0
M  END
> <minimizedAffinity>
3.21921

> <CNNscore>
0.3659941256

> <CNNaffinity>
6.6226739883

> <CNN_VS>
2.4238598347

> <CNNaffinity_variance>
0.5282267332

$$$$
[H]c1nc2c(c([H])c1C([H])([H])C([H])([H])C(=O)N([H])C([H])(C([H])([H])[H])C([H])([H])[H])C([H])(N1C([H])([H])C([H])([H])C([H])([H])C([H])([H])C1([H])[H])c1c([H])c(OC([H])([H])[H])c(OC([H])([H])[H])c([H])c1C([H])([H])C([H])([H])C2([H])[H]


 35 38  0  0  0  0  0  0  0  0999 V2000
   55.6999   -4.8896   -7.4529 C   0  0  0  0  0  0  0  0  0  0  0  0
   56.9846   -4.6320   -7.0803 C   0  0  0  0  0  0  0  0  0  0  0  0
   57.3170   -4.7444   -5.7792 N   0  0  0  0  0  0  0  0  0  0  0  0
   56.4064   -5.1020   -4.8669 C   0  0  0  0  0  0  0  0  0  0  0  0
   55.1008   -5.3735   -5.1726 C   0  0  0  0  0  0  0  0  0  0  0  0
   54.7722   -5.2520   -6.5341 C   0  0  0  0  0  0  0  0  0  0  0  0
   58.2786   -4.2321   -7.7717 C   0  0  0  0  0  0  0  0  0  0  0  0
   59.0030   -5.4939   -8.2262 C   0  0  0  0  0  0  0  0  0  0  0  0
   58.1156   -6.2988   -9.1682 C   0  0  0  0  0  0  0  0  0  0  0  0
   57.2712   -5.3450   -9.9869 C   0  0  0  0  0  0  0  0  0  0  0  0
   58.0144   -5.0682  -11.1074 C   0  0  0  0  0  0  0  0  0  0  0  0
   57.5267   -4.2099  -12.0684 C   0  0  0  0  0  0  0  0  0  0  0  0
   56.2887   -3.6184  -11.9174 C   0  0  0  0  0  0  0  0  0  0  0  0
   55.5169   -3.8905  -10.7786 C   0  0  0  0  0  0  0  0  0  0  0  0
   56.0271   -4.7407   -9.8520 C   0  0  0  0  0  0  0  0  0  0  0  0
   55.0170   -4.8470   -8.7762 C   0  0  0  0  0  0  0  0  0  0  0  0
   53.8377   -4.1432   -8.8399 N   0  0  0  0  0  0  0  0  0  0  0  0
   53.7087   -2.8088   -9.1410 C   0  0  0  0  0  0  0  0  0  0  0  0
   52.2804   -2.4596   -9.4914 C   0  0  0  0  0  0  0  0  0  0  0  0
   51.3311   -2.7580   -8.3371 C   0  0  0  0  0  0  0  0  0  0  0  0
   51.7255   -4.0808   -7.7140 C   0  0  0  0  0  0  0  0  0  0  0  0
   52.6681   -4.8647   -8.6051 C   0  0  0  0  0  0  0  0  0  0  0  0
   58.3086   -3.9505  -13.1968 O   0  0  0  0  0  0  0  0  0  0  0  0
   59.6959   -3.7275  -13.0716 C   0  0  0  0  0  0  0  0  0  0  0  0
   55.8467   -2.7606  -12.9162 O   0  0  0  0  0  0  0  0  0  0  0  0
   55.8923   -3.1981  -14.2665 C   0  0  0  0  0  0  0  0  0  0  0  0
   54.0511   -5.7362   -4.1889 C   0  0  0  0  0  0  0  0  0  0  0  0
   54.2132   -7.0369   -3.5091 C   0  0  0  0  0  0  0  0  0  0  0  0
   53.6810   -7.1766   -2.1637 C   0  0  0  0  0  0  0  0  0  0  0  0
   52.5285   -7.9903   -1.9494 N   0  0  0  0  0  0  0  0  0  0  0  0
   54.1707   -6.6250   -1.1685 O   0  0  0  0  0  0  0  0  0  0  0  0
   52.0907   -8.4695   -2.7612 H   0  0  0  0  0  0  0  0  0  0  0  0
   51.9773   -8.1448   -0.6210 C   0  0  0  0  0  0  0  0  0  0  0  0
   50.4735   -7.8556   -0.6512 C   0  0  0  0  0  0  0  0  0  0  0  0
   52.1824   -9.5041   -0.0296 C   0  0  0  0  0  0  0  0  0  0  0  0
  1  2  1  0  0  0
  2  3  2  0  0  0
  3  4  1  0  0  0
  4  5  2  0  0  0
  5 27  1  0  0  0
 27 28  1  0  0  0
 28 29  1  0  0  0
 29 30  1  0  0  0
 30 33  1  0  0  0
 33 34  1  0  0  0
 33 35  1  0  0  0
 29 31  2  0  0  0
  5  6  1  0  0  0
  2  7  1  0  0  0
  7  8  1  0  0  0
  8  9  1  0  0  0
  9 10  1  0  0  0
 10 11  2  0  0  0
 11 12  1  0  0  0
 12 23  1  0  0  0
 23 24  1  0  0  0
 12 13  2  0  0  0
 13 25  1  0  0  0
 25 26  1  0  0  0
 13 14  1  0  0  0
 14 15  2  0  0  0
 15 16  1  0  0  0
 16 17  1  0  0  0
 17 18  1  0  0  0
 18 19  1  0  0  0
 19 20  1  0  0  0
 20 21  1  0  0  0
 21 22  1  0  0  0
  6  1  2  0  0  0
 15 10  1  0  0  0
 22 17  1  0  0  0
 16  1  1  0  0  0
 30 32  1  0  0  0
M  END
> <minimizedAffinity>
-3.29998

> <CNNscore>
0.3599899113

> <CNNaffinity>
6.9856352806

> <CNN_VS>
2.5147581100

> <CNNaffinity_variance>
0.2950358987

$$$$
[H]c1nc2c(c([H])c1C([H])([H])C([H])([H])C(=O)N([H])C([H])(C([H])([H])[H])C([H])([H])[H])C([H])(N1C([H])([H])C([H])([H])C([H])([H])C([H])([H])C1([H])[H])c1c([H])c(OC([H])([H])[H])c(OC([H])([H])[H])c([H])c1C([H])([H])C([H])([H])C2([H])[H]


 35 38  0  0  0  0  0  0  0  0999 V2000
   55.2918   -5.3166   -6.6089 C   0  0  0  0  0  0  0  0  0  0  0  0
   54.5969   -4.4572   -7.4053 C   0  0  0  0  0  0  0  0  0  0  0  0
   55.2097   -3.9365   -8.4866 N   0  0  0  0  0  0  0  0  0  0  0  0
   56.4762   -4.2544   -8.7770 C   0  0  0  0  0  0  0  0  0  0  0  0
   57.2305   -5.1088   -8.0200 C   0  0  0  0  0  0  0  0  0  0  0  0
   56.5752   -5.6428   -6.8968 C   0  0  0  0  0  0  0  0  0  0  0  0
   53.1943   -3.8710   -7.4421 C   0  0  0  0  0  0  0  0  0  0  0  0
   52.2866   -4.8174   -8.2193 C   0  0  0  0  0  0  0  0  0  0  0  0
   52.2782   -6.1935   -7.5641 C   0  0  0  0  0  0  0  0  0  0  0  0
   52.4116   -6.0277   -6.0649 C   0  0  0  0  0  0  0  0  0  0  0  0
   51.1268   -5.9210   -5.5930 C   0  0  0  0  0  0  0  0  0  0  0  0
   50.8950   -5.7485   -4.2459 C   0  0  0  0  0  0  0  0  0  0  0  0
   51.9480   -5.6804   -3.3560 C   0  0  0  0  0  0  0  0  0  0  0  0
   53.2664   -5.7876   -3.8218 C   0  0  0  0  0  0  0  0  0  0  0  0
   53.4590   -5.9571   -5.1544 C   0  0  0  0  0  0  0  0  0  0  0  0
   54.9216   -6.0418   -5.3614 C   0  0  0  0  0  0  0  0  0  0  0  0
   55.7937   -5.9362   -4.3039 N   0  0  0  0  0  0  0  0  0  0  0  0
   56.1624   -4.7721   -3.6741 C   0  0  0  0  0  0  0  0  0  0  0  0
   56.8199   -5.0518   -2.3421 C   0  0  0  0  0  0  0  0  0  0  0  0
   58.0772   -5.8975   -2.5041 C   0  0  0  0  0  0  0  0  0  0  0  0
   57.8066   -6.9774   -3.5309 C   0  0  0  0  0  0  0  0  0  0  0  0
   56.3252   -7.1281   -3.8132 C   0  0  0  0  0  0  0  0  0  0  0  0
   49.5754   -5.6443   -3.7992 O   0  0  0  0  0  0  0  0  0  0  0  0
   48.9540   -4.3827   -3.6877 C   0  0  0  0  0  0  0  0  0  0  0  0
   51.6570   -5.5047   -2.0095 O   0  0  0  0  0  0  0  0  0  0  0  0
   52.7191   -5.2292   -1.1079 C   0  0  0  0  0  0  0  0  0  0  0  0
   58.6478   -5.4588   -8.2841 C   0  0  0  0  0  0  0  0  0  0  0  0
   58.9621   -5.9287   -9.6482 C   0  0  0  0  0  0  0  0  0  0  0  0
   60.2547   -6.5533   -9.8756 C   0  0  0  0  0  0  0  0  0  0  0  0
   60.6335   -7.6818   -9.0885 N   0  0  0  0  0  0  0  0  0  0  0  0
   61.0679   -6.1640  -10.7251 O   0  0  0  0  0  0  0  0  0  0  0  0
   59.9761   -8.0371   -8.3662 H   0  0  0  0  0  0  0  0  0  0  0  0
   61.9149   -8.3209   -9.2930 C   0  0  0  0  0  0  0  0  0  0  0  0
   62.5028   -8.7389   -7.9419 C   0  0  0  0  0  0  0  0  0  0  0  0
   61.8605   -9.5284  -10.1753 C   0  0  0  0  0  0  0  0  0  0  0  0
  1  2  1  0  0  0
  2  3  2  0  0  0
  3  4  1  0  0  0
  4  5  2  0  0  0
  5 27  1  0  0  0
 27 28  1  0  0  0
 28 29  1  0  0  0
 29 30  1  0  0  0
 30 33  1  0  0  0
 33 34  1  0  0  0
 33 35  1  0  0  0
 29 31  2  0  0  0
  5  6  1  0  0  0
  2  7  1  0  0  0
  7  8  1  0  0  0
  8  9  1  0  0  0
  9 10  1  0  0  0
 10 11  2  0  0  0
 11 12  1  0  0  0
 12 23  1  0  0  0
 23 24  1  0  0  0
 12 13  2  0  0  0
 13 25  1  0  0  0
 25 26  1  0  0  0
 13 14  1  0  0  0
 14 15  2  0  0  0
 15 16  1  0  0  0
 16 17  1  0  0  0
 17 18  1  0  0  0
 18 19  1  0  0  0
 19 20  1  0  0  0
 20 21  1  0  0  0
 21 22  1  0  0  0
  6  1  2  0  0  0
 15 10  1  0  0  0
 22 17  1  0  0  0
 16  1  1  0  0  0
 30 32  1  0  0  0
M  END
> <minimizedAffinity>
-8.42280

> <CNNscore>
0.3442718983

> <CNNaffinity>
7.0538473129

> <CNN_VS>
2.4284412861

> <CNNaffinity_variance>
0.1231528074

$$$$
[H]O[C@]1([H])[C@]([H])(n2c([H])nc3c(N([H])[H])nc([H])nc32)O[C@]([H])(C([H])([H])OP(=O)(O[H])OP(=O)(O[H])OP(=O)(O[H])O[H])[C@]1([H])O[H]


 39 41  0  0  0  0  0  0  0  0999 V2000
   53.8394   -6.4952   -6.0292 C   0  0  0  0  0  0  0  0  0  0  0  0
   53.7604   -7.0177   -4.7664 O   0  0  0  0  0  0  0  0  0  0  0  0
   54.9885   -7.5154   -4.4023 C   0  0  0  0  0  0  0  0  0  0  0  0
   55.9891   -7.1463   -5.4438 C   0  0  0  0  0  0  0  0  0  0  0  0
   57.2206   -6.7925   -4.9693 O   0  0  0  0  0  0  0  0  0  0  0  0
   55.2791   -5.9742   -6.1350 C   0  0  0  0  0  0  0  0  0  0  0  0
   55.3620   -4.8217   -5.3618 O   0  0  0  0  0  0  0  0  0  0  0  0
   57.7835   -6.5172   -5.7172 H   0  0  0  0  0  0  0  0  0  0  0  0
   54.4799   -4.5623   -4.9953 H   0  0  0  0  0  0  0  0  0  0  0  0
   50.3920   -1.8859   -7.8600 N   0  0  0  0  0  0  0  0  0  0  0  0
   51.5526   -2.6943   -8.0340 C   0  0  0  0  0  0  0  0  0  0  0  0
   52.4242   -2.4930   -9.0238 N   0  0  0  0  0  0  0  0  0  0  0  0
   53.5060   -3.2818   -9.1483 C   0  0  0  0  0  0  0  0  0  0  0  0
   53.7305   -4.2928   -8.2734 N   0  0  0  0  0  0  0  0  0  0  0  0
   52.8960   -4.5393   -7.2685 C   0  0  0  0  0  0  0  0  0  0  0  0
   52.8914   -5.4569   -6.2889 N   0  0  0  0  0  0  0  0  0  0  0  0
   51.7909   -5.2305   -5.5499 C   0  0  0  0  0  0  0  0  0  0  0  0
   51.1104   -4.1730   -6.0684 N   0  0  0  0  0  0  0  0  0  0  0  0
   51.7860   -3.7361   -7.1342 C   0  0  0  0  0  0  0  0  0  0  0  0
   49.4336   -2.3102   -7.9032 H   0  0  0  0  0  0  0  0  0  0  0  0
   50.5531   -0.8690   -7.6909 H   0  0  0  0  0  0  0  0  0  0  0  0
   55.3229   -6.9862   -3.0309 C   0  0  0  0  0  0  0  0  0  0  0  0
   56.2427   -7.7360   -2.3497 O   0  0  0  0  0  0  0  0  0  0  0  0
   57.1814   -6.7287   -1.3940 P   0  0  0  0  0  0  0  0  0  0  0  0
   57.9078   -5.4929   -2.3118 O   0  0  0  0  0  0  0  0  0  0  0  0
   56.3081   -6.0172   -0.3570 O   0  0  0  0  0  0  0  0  0  0  0  0
   57.6610   -5.5544   -3.2625 H   0  0  0  0  0  0  0  0  0  0  0  0
   58.3888   -7.5244   -0.5612 O   0  0  0  0  0  0  0  0  0  0  0  0
   59.6777   -7.9874   -1.5141 P   0  0  0  0  0  0  0  0  0  0  0  0
   59.0632   -8.3161   -3.0768 O   0  0  0  0  0  0  0  0  0  0  0  0
   60.7061   -6.8895   -1.6957 O   0  0  0  0  0  0  0  0  0  0  0  0
   58.0815   -8.3748   -3.0759 H   0  0  0  0  0  0  0  0  0  0  0  0
   60.4000   -9.4226   -0.9789 O   0  0  0  0  0  0  0  0  0  0  0  0
   59.3120  -10.6826   -1.3623 P   0  0  0  0  0  0  0  0  0  0  0  0
   59.5146  -11.9933   -0.3130 O   0  0  0  0  0  0  0  0  0  0  0  0
   57.7221  -10.1844   -1.2912 O   0  0  0  0  0  0  0  0  0  0  0  0
   59.5830  -11.1959   -2.7702 O   0  0  0  0  0  0  0  0  0  0  0  0
   60.4920  -12.0837   -0.1604 H   0  0  0  0  0  0  0  0  0  0  0  0
   57.4302   -9.6227   -2.0425 H   0  0  0  0  0  0  0  0  0  0  0  0
 10 11  1  0  0  0
 11 12  2  0  0  0
 12 13  1  0  0  0
 13 14  2  0  0  0
 14 15  1  0  0  0
 15 16  1  0  0  0
 16 17  1  0  0  0
 17 18  2  0  0  0
 18 19  1  0  0  0
 16  1  1  0  0  0
  1  2  1  0  0  0
  2  3  1  0  0  0
  3 22  1  0  0  0
 22 23  1  0  0  0
 23 24  1  0  0  0
 24 25  1  0  0  0
 24 26  2  0  0  0
 24 28  1  0  0  0
 28 29  1  0  0  0
 29 30  1  0  0  0
 29 31  2  0  0  0
 29 33  1  0  0  0
 33 34  1  0  0  0
 34 35  1  0  0  0
 34 36  1  0  0  0
 34 37  2  0  0  0
  3  4  1  0  0  0
  4  5  1  0  0  0
  4  6  1  0  0  0
  6  7  1  0  0  0
 19 11  1  0  0  0
  6  1  1  0  0  0
 19 15  2  0  0  0
 10 20  1  0  0  0
 10 21  1  0  0  0
 25 27  1  0  0  0
 30 32  1  0  0  0
 35 38  1  0  0  0
 36 39  1  0  0  0
  5  8  1  0  0  0
  7  9  1  0  0  0
M  END
> <minimizedAffinity>
-7.26463

> <CNNscore>
0.5175094008

> <CNNaffinity>
5.3683519363

> <CNN_VS>
2.7781724930

> <CNNaffinity_variance>
0.1782145798

$$$$
[H]O[C@]1([H])[C@]([H])(n2c([H])nc3c(N([H])[H])nc([H])nc32)O[C@]([H])(C([H])([H])OP(=O)(O[H])OP(=O)(O[H])OP(=O)(O[H])O[H])[C@]1([H])O[H]


 39 41  0  0  0  0  0  0  0  0999 V2000
   54.4460   -5.1069   -8.0150 C   0  0  0  0  0  0  0  0  0  0  0  0
   54.5079   -5.7265   -6.7959 O   0  0  0  0  0  0  0  0  0  0  0  0
   55.7863   -6.1827   -6.5817 C   0  0  0  0  0  0  0  0  0  0  0  0
   56.6687   -5.6824   -7.6741 C   0  0  0  0  0  0  0  0  0  0  0  0
   57.9203   -5.2989   -7.2827 O   0  0  0  0  0  0  0  0  0  0  0  0
   55.8436   -4.5019   -8.2046 C   0  0  0  0  0  0  0  0  0  0  0  0
   55.9423   -3.4081   -7.3522 O   0  0  0  0  0  0  0  0  0  0  0  0
   58.3987   -4.9379   -8.0526 H   0  0  0  0  0  0  0  0  0  0  0  0
   55.0862   -3.2253   -6.8902 H   0  0  0  0  0  0  0  0  0  0  0  0
   49.7391   -1.3359   -7.6871 N   0  0  0  0  0  0  0  0  0  0  0  0
   50.4206   -2.4918   -7.2069 C   0  0  0  0  0  0  0  0  0  0  0  0
   49.9504   -3.2361   -6.2045 N   0  0  0  0  0  0  0  0  0  0  0  0
   50.6285   -4.3187   -5.7852 C   0  0  0  0  0  0  0  0  0  0  0  0
   51.7986   -4.6731   -6.3711 N   0  0  0  0  0  0  0  0  0  0  0  0
   52.3141   -3.9687   -7.3736 C   0  0  0  0  0  0  0  0  0  0  0  0
   53.4301   -4.1050   -8.1069 N   0  0  0  0  0  0  0  0  0  0  0  0
   53.4400   -3.0917   -8.9910 C   0  0  0  0  0  0  0  0  0  0  0  0
   52.3315   -2.3247   -8.8089 N   0  0  0  0  0  0  0  0  0  0  0  0
   51.6258   -2.8587   -7.8088 C   0  0  0  0  0  0  0  0  0  0  0  0
   50.1949   -0.3919   -7.6482 H   0  0  0  0  0  0  0  0  0  0  0  0
   48.7804   -1.4857   -8.0706 H   0  0  0  0  0  0  0  0  0  0  0  0
   56.2195   -5.7407   -5.2071 C   0  0  0  0  0  0  0  0  0  0  0  0
   57.0821   -6.6032   -4.5869 O   0  0  0  0  0  0  0  0  0  0  0  0
   56.4587   -7.0315   -3.0913 P   0  0  0  0  0  0  0  0  0  0  0  0
   55.2153   -5.9755   -2.6054 O   0  0  0  0  0  0  0  0  0  0  0  0
   55.8194   -8.4210   -3.1619 O   0  0  0  0  0  0  0  0  0  0  0  0
   55.0477   -5.2782   -3.2793 H   0  0  0  0  0  0  0  0  0  0  0  0
   57.5992   -7.0733   -1.8739 O   0  0  0  0  0  0  0  0  0  0  0  0
   59.1086   -7.5766   -2.3761 P   0  0  0  0  0  0  0  0  0  0  0  0
   58.8835   -8.5599   -3.7582 O   0  0  0  0  0  0  0  0  0  0  0  0
   59.9977   -6.4333   -2.8213 O   0  0  0  0  0  0  0  0  0  0  0  0
   57.9400   -8.8111   -3.8752 H   0  0  0  0  0  0  0  0  0  0  0  0
   59.8864   -8.5476   -1.2270 O   0  0  0  0  0  0  0  0  0  0  0  0
   59.1107  -10.0687   -1.2762 P   0  0  0  0  0  0  0  0  0  0  0  0
   57.4294   -9.8872   -1.2946 O   0  0  0  0  0  0  0  0  0  0  0  0
   59.5642  -10.9635   -2.6084 O   0  0  0  0  0  0  0  0  0  0  0  0
   59.4562  -10.8714   -0.0290 O   0  0  0  0  0  0  0  0  0  0  0  0
   57.2201   -9.1378   -0.6770 H   0  0  0  0  0  0  0  0  0  0  0  0
   60.4632  -11.3565   -2.5568 H   0  0  0  0  0  0  0  0  0  0  0  0
 10 11  1  0  0  0
 11 12  2  0  0  0
 12 13  1  0  0  0
 13 14  2  0  0  0
 14 15  1  0  0  0
 15 16  1  0  0  0
 16 17  1  0  0  0
 17 18  2  0  0  0
 18 19  1  0  0  0
 16  1  1  0  0  0
  1  2  1  0  0  0
  2  3  1  0  0  0
  3 22  1  0  0  0
 22 23  1  0  0  0
 23 24  1  0  0  0
 24 25  1  0  0  0
 24 26  2  0  0  0
 24 28  1  0  0  0
 28 29  1  0  0  0
 29 30  1  0  0  0
 29 31  2  0  0  0
 29 33  1  0  0  0
 33 34  1  0  0  0
 34 35  1  0  0  0
 34 36  1  0  0  0
 34 37  2  0  0  0
  3  4  1  0  0  0
  4  5  1  0  0  0
  4  6  1  0  0  0
  6  7  1  0  0  0
 19 11  1  0  0  0
  6  1  1  0  0  0
 19 15  2  0  0  0
 10 20  1  0  0  0
 10 21  1  0  0  0
 25 27  1  0  0  0
 30 32  1  0  0  0
 35 38  1  0  0  0
 36 39  1  0  0  0
  5  8  1  0  0  0
  7  9  1  0  0  0
M  END
> <minimizedAffinity>
-7.38674

> <CNNscore>
0.4692825675

> <CNNaffinity>
5.4142036438

> <CNN_VS>
2.5407912731

> <CNNaffinity_variance>
0.0644097254

$$$$
[H]O[C@]1([H])[C@]([H])(n2c([H])nc3c(N([H])[H])nc([H])nc32)O[C@]([H])(C([H])([H])OP(=O)(O[H])OP(=O)(O[H])OP(=O)(O[H])O[H])[C@]1([H])O[H]


 39 41  0  0  0  0  0  0  0  0999 V2000
   54.1478   -6.1937   -6.6973 C   0  0  0  0  0  0  0  0  0  0  0  0
   54.0560   -7.1810   -5.7536 O   0  0  0  0  0  0  0  0  0  0  0  0
   55.3191   -7.5882   -5.3968 C   0  0  0  0  0  0  0  0  0  0  0  0
   56.3181   -6.6867   -6.0381 C   0  0  0  0  0  0  0  0  0  0  0  0
   57.3968   -6.3671   -5.2629 O   0  0  0  0  0  0  0  0  0  0  0  0
   55.4512   -5.4600   -6.3535 C   0  0  0  0  0  0  0  0  0  0  0  0
   55.2169   -4.7126   -5.2048 O   0  0  0  0  0  0  0  0  0  0  0  0
   57.9607   -5.7342   -5.7462 H   0  0  0  0  0  0  0  0  0  0  0  0
   54.2687   -4.7588   -4.9247 H   0  0  0  0  0  0  0  0  0  0  0  0
   49.9062   -1.9601   -7.4506 N   0  0  0  0  0  0  0  0  0  0  0  0
   51.1608   -2.5203   -7.8286 C   0  0  0  0  0  0  0  0  0  0  0  0
   51.9145   -2.0004   -8.7990 N   0  0  0  0  0  0  0  0  0  0  0  0
   53.0921   -2.5637   -9.1212 C   0  0  0  0  0  0  0  0  0  0  0  0
   53.5341   -3.6665   -8.4683 N   0  0  0  0  0  0  0  0  0  0  0  0
   52.8251   -4.2269   -7.4935 C   0  0  0  0  0  0  0  0  0  0  0  0
   53.0349   -5.2962   -6.7097 N   0  0  0  0  0  0  0  0  0  0  0  0
   51.9711   -5.3934   -5.8927 C   0  0  0  0  0  0  0  0  0  0  0  0
   51.0994   -4.3859   -6.1669 N   0  0  0  0  0  0  0  0  0  0  0  0
   51.6182   -3.6561   -7.1576 C   0  0  0  0  0  0  0  0  0  0  0  0
   49.0238   -2.5215   -7.5320 H   0  0  0  0  0  0  0  0  0  0  0  0
   49.9215   -0.9789   -7.0962 H   0  0  0  0  0  0  0  0  0  0  0  0
   55.4005   -7.6042   -3.8915 C   0  0  0  0  0  0  0  0  0  0  0  0
   56.1374   -6.5814   -3.3592 O   0  0  0  0  0  0  0  0  0  0  0  0
   55.3227   -5.9366   -2.0441 P   0  0  0  0  0  0  0  0  0  0  0  0
   54.8824   -7.1433   -0.9272 O   0  0  0  0  0  0  0  0  0  0  0  0
   56.2327   -4.9732   -1.2773 O   0  0  0  0  0  0  0  0  0  0  0  0
   55.1787   -8.0346   -1.2207 H   0  0  0  0  0  0  0  0  0  0  0  0
   53.9433   -5.0922   -2.4551 O   0  0  0  0  0  0  0  0  0  0  0  0
   52.5294   -5.8093   -1.9351 P   0  0  0  0  0  0  0  0  0  0  0  0
   52.5747   -5.8429   -0.2250 O   0  0  0  0  0  0  0  0  0  0  0  0
   51.2918   -5.0154   -2.3014 O   0  0  0  0  0  0  0  0  0  0  0  0
   53.4729   -5.6371    0.1184 H   0  0  0  0  0  0  0  0  0  0  0  0
   52.3950   -7.4215   -2.4360 O   0  0  0  0  0  0  0  0  0  0  0  0
   51.4188   -8.2076   -1.2754 P   0  0  0  0  0  0  0  0  0  0  0  0
   50.1405   -7.2124   -0.7901 O   0  0  0  0  0  0  0  0  0  0  0  0
   50.7891   -9.6410   -1.8498 O   0  0  0  0  0  0  0  0  0  0  0  0
   52.2370   -8.5177   -0.0289 O   0  0  0  0  0  0  0  0  0  0  0  0
   50.5087   -6.2921   -0.7254 H   0  0  0  0  0  0  0  0  0  0  0  0
   51.4303  -10.3837   -1.9016 H   0  0  0  0  0  0  0  0  0  0  0  0
 10 11  1  0  0  0
 11 12  2  0  0  0
 12 13  1  0  0  0
 13 14  2  0  0  0
 14 15  1  0  0  0
 15 16  1  0  0  0
 16 17  1  0  0  0
 17 18  2  0  0  0
 18 19  1  0  0  0
 16  1  1  0  0  0
  1  2  1  0  0  0
  2  3  1  0  0  0
  3 22  1  0  0  0
 22 23  1  0  0  0
 23 24  1  0  0  0
 24 25  1  0  0  0
 24 26  2  0  0  0
 24 28  1  0  0  0
 28 29  1  0  0  0
 29 30  1  0  0  0
 29 31  2  0  0  0
 29 33  1  0  0  0
 33 34  1  0  0  0
 34 35  1  0  0  0
 34 36  1  0  0  0
 34 37  2  0  0  0
  3  4  1  0  0  0
  4  5  1  0  0  0
  4  6  1  0  0  0
  6  7  1  0  0  0
 19 11  1  0  0  0
  6  1  1  0  0  0
 19 15  2  0  0  0
 10 20  1  0  0  0
 10 21  1  0  0  0
 25 27  1  0  0  0
 30 32  1  0  0  0
 35 38  1  0  0  0
 36 39  1  0  0  0
  5  8  1  0  0  0
  7  9  1  0  0  0
M  END
> <minimizedAffinity>
-7.90179

> <CNNscore>
0.4517139792

> <CNNaffinity>
5.2679920197

> <CNN_VS>
2.3796255589

> <CNNaffinity_variance>
0.2434948683

$$$$
[H]O[C@]1([H])[C@]([H])(n2c([H])nc3c(N([H])[H])nc([H])nc32)O[C@]([H])(C([H])([H])OP(=O)(O[H])OP(=O)(O[H])OP(=O)(O[H])O[H])[C@]1([H])O[H]


 39 41  0  0  0  0  0  0  0  0999 V2000
   54.4158   -5.0754   -8.0039 C   0  0  0  0  0  0  0  0  0  0  0  0
   54.4032   -5.7238   -6.7984 O   0  0  0  0  0  0  0  0  0  0  0  0
   55.6630   -6.1996   -6.5245 C   0  0  0  0  0  0  0  0  0  0  0  0
   56.6100   -5.6843   -7.5539 C   0  0  0  0  0  0  0  0  0  0  0  0
   57.8417   -5.3245   -7.0846 O   0  0  0  0  0  0  0  0  0  0  0  0
   55.8279   -4.4824   -8.1011 C   0  0  0  0  0  0  0  0  0  0  0  0
   55.8901   -3.4099   -7.2187 O   0  0  0  0  0  0  0  0  0  0  0  0
   58.3659   -4.9512   -7.8179 H   0  0  0  0  0  0  0  0  0  0  0  0
   55.0115   -3.2280   -6.8007 H   0  0  0  0  0  0  0  0  0  0  0  0
   49.7627   -1.2290   -7.8119 N   0  0  0  0  0  0  0  0  0  0  0  0
   50.4189   -2.3868   -7.3022 C   0  0  0  0  0  0  0  0  0  0  0  0
   49.9219   -3.1072   -6.2953 N   0  0  0  0  0  0  0  0  0  0  0  0
   50.5767   -4.1928   -5.8476 C   0  0  0  0  0  0  0  0  0  0  0  0
   51.7502   -4.5745   -6.4092 N   0  0  0  0  0  0  0  0  0  0  0  0
   52.2919   -3.8947   -7.4149 C   0  0  0  0  0  0  0  0  0  0  0  0
   53.4169   -4.0600   -8.1282 N   0  0  0  0  0  0  0  0  0  0  0  0
   53.4560   -3.0617   -9.0285 C   0  0  0  0  0  0  0  0  0  0  0  0
   52.3567   -2.2753   -8.8765 N   0  0  0  0  0  0  0  0  0  0  0  0
   51.6275   -2.7819   -7.8790 C   0  0  0  0  0  0  0  0  0  0  0  0
   50.2323   -0.2915   -7.7813 H   0  0  0  0  0  0  0  0  0  0  0  0
   48.8079   -1.3706   -8.2080 H   0  0  0  0  0  0  0  0  0  0  0  0
   56.0232   -5.7947   -5.1177 C   0  0  0  0  0  0  0  0  0  0  0  0
   56.9612   -6.5967   -4.5265 O   0  0  0  0  0  0  0  0  0  0  0  0
   56.2602   -7.4185   -3.2450 P   0  0  0  0  0  0  0  0  0  0  0  0
   54.7186   -8.0147   -3.6517 O   0  0  0  0  0  0  0  0  0  0  0  0
   57.0981   -8.6474   -2.8818 O   0  0  0  0  0  0  0  0  0  0  0  0
   54.4764   -7.7914   -4.5790 H   0  0  0  0  0  0  0  0  0  0  0  0
   56.1044   -6.4996   -1.8609 O   0  0  0  0  0  0  0  0  0  0  0  0
   57.3056   -5.3579   -1.6665 P   0  0  0  0  0  0  0  0  0  0  0  0
   56.8145   -3.9535   -2.5116 O   0  0  0  0  0  0  0  0  0  0  0  0
   57.4904   -4.9306   -0.2245 O   0  0  0  0  0  0  0  0  0  0  0  0
   56.0515   -4.1350   -3.1048 H   0  0  0  0  0  0  0  0  0  0  0  0
   58.7756   -5.8359   -2.3583 O   0  0  0  0  0  0  0  0  0  0  0  0
   59.6209   -6.6965   -1.1488 P   0  0  0  0  0  0  0  0  0  0  0  0
   60.3149   -5.6362   -0.0288 O   0  0  0  0  0  0  0  0  0  0  0  0
   58.6352   -7.7644   -0.3309 O   0  0  0  0  0  0  0  0  0  0  0  0
   60.7610   -7.4901   -1.7730 O   0  0  0  0  0  0  0  0  0  0  0  0
   60.6550   -4.8607   -0.5482 H   0  0  0  0  0  0  0  0  0  0  0  0
   58.4012   -8.5775   -0.8303 H   0  0  0  0  0  0  0  0  0  0  0  0
 10 11  1  0  0  0
 11 12  2  0  0  0
 12 13  1  0  0  0
 13 14  2  0  0  0
 14 15  1  0  0  0
 15 16  1  0  0  0
 16 17  1  0  0  0
 17 18  2  0  0  0
 18 19  1  0  0  0
 16  1  1  0  0  0
  1  2  1  0  0  0
  2  3  1  0  0  0
  3 22  1  0  0  0
 22 23  1  0  0  0
 23 24  1  0  0  0
 24 25  1  0  0  0
 24 26  2  0  0  0
 24 28  1  0  0  0
 28 29  1  0  0  0
 29 30  1  0  0  0
 29 31  2  0  0  0
 29 33  1  0  0  0
 33 34  1  0  0  0
 34 35  1  0  0  0
 34 36  1  0  0  0
 34 37  2  0  0  0
  3  4  1  0  0  0
  4  5  1  0  0  0
  4  6  1  0  0  0
  6  7  1  0  0  0
 19 11  1  0  0  0
  6  1  1  0  0  0
 19 15  2  0  0  0
 10 20  1  0  0  0
 10 21  1  0  0  0
 25 27  1  0  0  0
 30 32  1  0  0  0
 35 38  1  0  0  0
 36 39  1  0  0  0
  5  8  1  0  0  0
  7  9  1  0  0  0
M  END
> <minimizedAffinity>
-7.65368

> <CNNscore>
0.3919862509

> <CNNaffinity>
5.3418221474

> <CNN_VS>
2.0939209461

> <CNNaffinity_variance>
0.0433592983

$$$$
[H]O[C@]1([H])[C@]([H])(n2c([H])nc3c(N([H])[H])nc([H])nc32)O[C@]([H])(C([H])([H])OP(=O)(O[H])OP(=O)(O[H])OP(=O)(O[H])O[H])[C@]1([H])O[H]


 39 41  0  0  0  0  0  0  0  0999 V2000
   54.2087   -6.2276   -6.5300 C   0  0  0  0  0  0  0  0  0  0  0  0
   54.0001   -7.3058   -5.7129 O   0  0  0  0  0  0  0  0  0  0  0  0
   55.2080   -7.7577   -5.2385 C   0  0  0  0  0  0  0  0  0  0  0  0
   56.2772   -6.8031   -5.6479 C   0  0  0  0  0  0  0  0  0  0  0  0
   57.2439   -6.5735   -4.7101 O   0  0  0  0  0  0  0  0  0  0  0  0
   55.4521   -5.5436   -5.9456 C   0  0  0  0  0  0  0  0  0  0  0  0
   55.0660   -4.9164   -4.7665 O   0  0  0  0  0  0  0  0  0  0  0  0
   57.8625   -5.8989   -5.0482 H   0  0  0  0  0  0  0  0  0  0  0  0
   54.0897   -4.9835   -4.6185 H   0  0  0  0  0  0  0  0  0  0  0  0
   50.0082   -1.9999   -7.5123 N   0  0  0  0  0  0  0  0  0  0  0  0
   51.2655   -2.5811   -7.8476 C   0  0  0  0  0  0  0  0  0  0  0  0
   52.0390   -2.1018   -8.8231 N   0  0  0  0  0  0  0  0  0  0  0  0
   53.2183   -2.6835   -9.1039 C   0  0  0  0  0  0  0  0  0  0  0  0
   53.6419   -3.7641   -8.4032 N   0  0  0  0  0  0  0  0  0  0  0  0
   52.9127   -4.2838   -7.4209 C   0  0  0  0  0  0  0  0  0  0  0  0
   53.1020   -5.3246   -6.5947 N   0  0  0  0  0  0  0  0  0  0  0  0
   52.0238   -5.3854   -5.7932 C   0  0  0  0  0  0  0  0  0  0  0  0
   51.1635   -4.3836   -6.1195 N   0  0  0  0  0  0  0  0  0  0  0  0
   51.7039   -3.6939   -7.1273 C   0  0  0  0  0  0  0  0  0  0  0  0
   49.1237   -2.5587   -7.5882 H   0  0  0  0  0  0  0  0  0  0  0  0
   50.0238   -1.0064   -7.1941 H   0  0  0  0  0  0  0  0  0  0  0  0
   55.0926   -7.9289   -3.7451 C   0  0  0  0  0  0  0  0  0  0  0  0
   54.1798   -7.0980   -3.1545 O   0  0  0  0  0  0  0  0  0  0  0  0
   54.8947   -6.3263   -1.8498 P   0  0  0  0  0  0  0  0  0  0  0  0
   54.4335   -4.6903   -1.7603 O   0  0  0  0  0  0  0  0  0  0  0  0
   54.4277   -6.9618   -0.5374 O   0  0  0  0  0  0  0  0  0  0  0  0
   53.8126   -4.4484   -2.4845 H   0  0  0  0  0  0  0  0  0  0  0  0
   56.5622   -6.3876   -1.8629 O   0  0  0  0  0  0  0  0  0  0  0  0
   57.2966   -4.9666   -1.3884 P   0  0  0  0  0  0  0  0  0  0  0  0
   56.8533   -3.7621   -2.5200 O   0  0  0  0  0  0  0  0  0  0  0  0
   56.8117   -4.4688   -0.0419 O   0  0  0  0  0  0  0  0  0  0  0  0
   56.4398   -4.1523   -3.3223 H   0  0  0  0  0  0  0  0  0  0  0  0
   58.9869   -5.0604   -1.4358 O   0  0  0  0  0  0  0  0  0  0  0  0
   59.3819   -6.7177   -1.3116 P   0  0  0  0  0  0  0  0  0  0  0  0
   58.5208   -7.4493   -0.0534 O   0  0  0  0  0  0  0  0  0  0  0  0
   59.0683   -7.5469   -2.7241 O   0  0  0  0  0  0  0  0  0  0  0  0
   60.8614   -6.8789   -0.9885 O   0  0  0  0  0  0  0  0  0  0  0  0
   58.4952   -6.7915    0.6905 H   0  0  0  0  0  0  0  0  0  0  0  0
   59.7109   -7.3865   -3.4498 H   0  0  0  0  0  0  0  0  0  0  0  0
 10 11  1  0  0  0
 11 12  2  0  0  0
 12 13  1  0  0  0
 13 14  2  0  0  0
 14 15  1  0  0  0
 15 16  1  0  0  0
 16 17  1  0  0  0
 17 18  2  0  0  0
 18 19  1  0  0  0
 16  1  1  0  0  0
  1  2  1  0  0  0
  2  3  1  0  0  0
  3 22  1  0  0  0
 22 23  1  0  0  0
 23 24  1  0  0  0
 24 25  1  0  0  0
 24 26  2  0  0  0
 24 28  1  0  0  0
 28 29  1  0  0  0
 29 30  1  0  0  0
 29 31  2  0  0  0
 29 33  1  0  0  0
 33 34  1  0  0  0
 34 35  1  0  0  0
 34 36  1  0  0  0
 34 37  2  0  0  0
  3  4  1  0  0  0
  4  5  1  0  0  0
  4  6  1  0  0  0
  6  7  1  0  0  0
 19 11  1  0  0  0
  6  1  1  0  0  0
 19 15  2  0  0  0
 10 20  1  0  0  0
 10 21  1  0  0  0
 25 27  1  0  0  0
 30 32  1  0  0  0
 35 38  1  0  0  0
 36 39  1  0  0  0
  5  8  1  0  0  0
  7  9  1  0  0  0
M  END
> <minimizedAffinity>
-7.76213

> <CNNscore>
0.3820561171

> <CNNaffinity>
5.2099199295

> <CNN_VS>
1.9904817343

> <CNNaffinity_variance>
0.0504833944

$$$$
[H]O[C@]1([H])[C@]([H])(n2c([H])nc3c(N([H])[H])nc([H])nc32)O[C@]([H])(C([H])([H])OP(=O)(O[H])OP(=O)(O[H])OP(=O)(O[H])O[H])[C@]1([H])O[H]


 39 41  0  0  0  0  0  0  0  0999 V2000
   54.6148   -4.9061   -8.3852 C   0  0  0  0  0  0  0  0  0  0  0  0
   54.7117   -5.6901   -7.2673 O   0  0  0  0  0  0  0  0  0  0  0  0
   56.0249   -6.0455   -7.0732 C   0  0  0  0  0  0  0  0  0  0  0  0
   56.8764   -5.3051   -8.0474 C   0  0  0  0  0  0  0  0  0  0  0  0
   58.0727   -4.8629   -7.5575 O   0  0  0  0  0  0  0  0  0  0  0  0
   55.9471   -4.1457   -8.4322 C   0  0  0  0  0  0  0  0  0  0  0  0
   55.9134   -3.1857   -7.4272 O   0  0  0  0  0  0  0  0  0  0  0  0
   58.5292   -4.3469   -8.2484 H   0  0  0  0  0  0  0  0  0  0  0  0
   55.0327   -3.1580   -6.9763 H   0  0  0  0  0  0  0  0  0  0  0  0
   49.6126   -1.6170   -7.5842 N   0  0  0  0  0  0  0  0  0  0  0  0
   50.4380   -2.7100   -7.1906 C   0  0  0  0  0  0  0  0  0  0  0  0
   50.1243   -3.5152   -6.1742 N   0  0  0  0  0  0  0  0  0  0  0  0
   50.9344   -4.5346   -5.8390 C   0  0  0  0  0  0  0  0  0  0  0  0
   52.0812   -4.7625   -6.5253 N   0  0  0  0  0  0  0  0  0  0  0  0
   52.4437   -3.9927   -7.5464 C   0  0  0  0  0  0  0  0  0  0  0  0
   53.5040   -4.0061   -8.3694 N   0  0  0  0  0  0  0  0  0  0  0  0
   53.3451   -2.9801   -9.2242 C   0  0  0  0  0  0  0  0  0  0  0  0
   52.1871   -2.3280   -8.9343 N   0  0  0  0  0  0  0  0  0  0  0  0
   51.6195   -2.9468   -7.8959 C   0  0  0  0  0  0  0  0  0  0  0  0
   49.9780   -0.6341   -7.5565 H   0  0  0  0  0  0  0  0  0  0  0  0
   48.6444   -1.8518   -7.8942 H   0  0  0  0  0  0  0  0  0  0  0  0
   56.3787   -5.7714   -5.6336 C   0  0  0  0  0  0  0  0  0  0  0  0
   55.4904   -4.9589   -4.9831 O   0  0  0  0  0  0  0  0  0  0  0  0
   55.7579   -5.0546   -3.3313 P   0  0  0  0  0  0  0  0  0  0  0  0
   56.6254   -3.7068   -2.7583 O   0  0  0  0  0  0  0  0  0  0  0  0
   54.4255   -5.0421   -2.5772 O   0  0  0  0  0  0  0  0  0  0  0  0
   56.8322   -3.0738   -3.4829 H   0  0  0  0  0  0  0  0  0  0  0  0
   56.5792   -6.4290   -2.8613 O   0  0  0  0  0  0  0  0  0  0  0  0
   56.6068   -6.6711   -1.2107 P   0  0  0  0  0  0  0  0  0  0  0  0
   56.3829   -5.1456   -0.4688 O   0  0  0  0  0  0  0  0  0  0  0  0
   55.4683   -7.5420   -0.7195 O   0  0  0  0  0  0  0  0  0  0  0  0
   56.4854   -4.4100   -1.1132 H   0  0  0  0  0  0  0  0  0  0  0  0
   58.1017   -7.2482   -0.6627 O   0  0  0  0  0  0  0  0  0  0  0  0
   59.2961   -6.4385   -1.5768 P   0  0  0  0  0  0  0  0  0  0  0  0
   59.2987   -6.9804   -3.1788 O   0  0  0  0  0  0  0  0  0  0  0  0
   59.0772   -4.7852   -1.5744 O   0  0  0  0  0  0  0  0  0  0  0  0
   60.6777   -6.7322   -1.0074 O   0  0  0  0  0  0  0  0  0  0  0  0
   59.1460   -7.9613   -3.1448 H   0  0  0  0  0  0  0  0  0  0  0  0
   59.3275   -4.3356   -0.7374 H   0  0  0  0  0  0  0  0  0  0  0  0
 10 11  1  0  0  0
 11 12  2  0  0  0
 12 13  1  0  0  0
 13 14  2  0  0  0
 14 15  1  0  0  0
 15 16  1  0  0  0
 16 17  1  0  0  0
 17 18  2  0  0  0
 18 19  1  0  0  0
 16  1  1  0  0  0
  1  2  1  0  0  0
  2  3  1  0  0  0
  3 22  1  0  0  0
 22 23  1  0  0  0
 23 24  1  0  0  0
 24 25  1  0  0  0
 24 26  2  0  0  0
 24 28  1  0  0  0
 28 29  1  0  0  0
 29 30  1  0  0  0
 29 31  2  0  0  0
 29 33  1  0  0  0
 33 34  1  0  0  0
 34 35  1  0  0  0
 34 36  1  0  0  0
 34 37  2  0  0  0
  3  4  1  0  0  0
  4  5  1  0  0  0
  4  6  1  0  0  0
  6  7  1  0  0  0
 19 11  1  0  0  0
  6  1  1  0  0  0
 19 15  2  0  0  0
 10 20  1  0  0  0
 10 21  1  0  0  0
 25 27  1  0  0  0
 30 32  1  0  0  0
 35 38  1  0  0  0
 36 39  1  0  0  0
  5  8  1  0  0  0
  7  9  1  0  0  0
M  END
> <minimizedAffinity>
-8.04153

> <CNNscore>
0.3511477709

> <CNNaffinity>
5.3715887070

> <CNN_VS>
1.8862214088

> <CNNaffinity_variance>
0.0495102778

$$$$
[H]O[C@]1([H])[C@]([H])(n2c([H])nc3c(N([H])[H])nc([H])nc32)O[C@]([H])(C([H])([H])OP(=O)(O[H])OP(=O)(O[H])OP(=O)(O[H])O[H])[C@]1([H])O[H]


 39 41  0  0  0  0  0  0  0  0999 V2000
   54.7169   -5.3104   -5.6131 C   0  0  0  0  0  0  0  0  0  0  0  0
   55.9312   -5.2693   -4.9826 O   0  0  0  0  0  0  0  0  0  0  0  0
   55.9512   -6.2011   -3.9727 C   0  0  0  0  0  0  0  0  0  0  0  0
   54.7129   -7.0272   -4.0510 C   0  0  0  0  0  0  0  0  0  0  0  0
   54.8819   -8.3571   -3.7871 O   0  0  0  0  0  0  0  0  0  0  0  0
   54.2813   -6.7778   -5.5026 C   0  0  0  0  0  0  0  0  0  0  0  0
   55.0665   -7.5121   -6.3841 O   0  0  0  0  0  0  0  0  0  0  0  0
   54.0320   -8.8185   -3.9168 H   0  0  0  0  0  0  0  0  0  0  0  0
   55.6545   -6.9276   -6.9249 H   0  0  0  0  0  0  0  0  0  0  0  0
   55.7911   -3.7546  -11.3497 N   0  0  0  0  0  0  0  0  0  0  0  0
   56.2635   -4.2809  -10.1124 C   0  0  0  0  0  0  0  0  0  0  0  0
   57.5250   -4.6785   -9.9378 N   0  0  0  0  0  0  0  0  0  0  0  0
   57.9256   -5.1688   -8.7517 C   0  0  0  0  0  0  0  0  0  0  0  0
   57.0582   -5.2678   -7.7145 N   0  0  0  0  0  0  0  0  0  0  0  0
   55.7901   -4.8868   -7.8313 C   0  0  0  0  0  0  0  0  0  0  0  0
   54.7551   -4.8817   -6.9766 N   0  0  0  0  0  0  0  0  0  0  0  0
   53.7014   -4.3811   -7.6456 C   0  0  0  0  0  0  0  0  0  0  0  0
   54.0791   -4.0746   -8.9159 N   0  0  0  0  0  0  0  0  0  0  0  0
   55.3721   -4.3838   -9.0427 C   0  0  0  0  0  0  0  0  0  0  0  0
   55.0171   -4.2317  -11.8728 H   0  0  0  0  0  0  0  0  0  0  0  0
   56.2538   -2.8849  -11.6934 H   0  0  0  0  0  0  0  0  0  0  0  0
   57.2206   -7.0045   -4.0990 C   0  0  0  0  0  0  0  0  0  0  0  0
   57.7379   -7.4266   -2.9045 O   0  0  0  0  0  0  0  0  0  0  0  0
   59.4036   -7.5570   -3.0364 P   0  0  0  0  0  0  0  0  0  0  0  0
   59.8796   -7.9116   -4.6317 O   0  0  0  0  0  0  0  0  0  0  0  0
   60.0686   -6.2216   -2.6917 O   0  0  0  0  0  0  0  0  0  0  0  0
   59.1048   -7.9799   -5.2346 H   0  0  0  0  0  0  0  0  0  0  0  0
   60.0693   -8.7138   -2.0348 O   0  0  0  0  0  0  0  0  0  0  0  0
   61.1762   -9.7082   -2.7897 P   0  0  0  0  0  0  0  0  0  0  0  0
   62.0658  -10.5031   -1.5631 O   0  0  0  0  0  0  0  0  0  0  0  0
   60.5268  -10.8057   -3.6080 O   0  0  0  0  0  0  0  0  0  0  0  0
   61.9159  -10.0927   -0.6821 H   0  0  0  0  0  0  0  0  0  0  0  0
   62.3063   -8.8442   -3.7086 O   0  0  0  0  0  0  0  0  0  0  0  0
   63.3238   -8.0438   -2.5941 P   0  0  0  0  0  0  0  0  0  0  0  0
   64.0970   -6.7277   -3.3221 O   0  0  0  0  0  0  0  0  0  0  0  0
   62.4876   -7.4978   -1.2585 O   0  0  0  0  0  0  0  0  0  0  0  0
   64.4165   -8.9890   -2.1127 O   0  0  0  0  0  0  0  0  0  0  0  0
   64.3401   -7.0166   -4.2409 H   0  0  0  0  0  0  0  0  0  0  0  0
   62.2325   -8.1959   -0.6158 H   0  0  0  0  0  0  0  0  0  0  0  0
 10 11  1  0  0  0
 11 12  2  0  0  0
 12 13  1  0  0  0
 13 14  2  0  0  0
 14 15  1  0  0  0
 15 16  1  0  0  0
 16 17  1  0  0  0
 17 18  2  0  0  0
 18 19  1  0  0  0
 16  1  1  0  0  0
  1  2  1  0  0  0
  2  3  1  0  0  0
  3 22  1  0  0  0
 22 23  1  0  0  0
 23 24  1  0  0  0
 24 25  1  0  0  0
 24 26  2  0  0  0
 24 28  1  0  0  0
 28 29  1  0  0  0
 29 30  1  0  0  0
 29 31  2  0  0  0
 29 33  1  0  0  0
 33 34  1  0  0  0
 34 35  1  0  0  0
 34 36  1  0  0  0
 34 37  2  0  0  0
  3  4  1  0  0  0
  4  5  1  0  0  0
  4  6  1  0  0  0
  6  7  1  0  0  0
 19 11  1  0  0  0
  6  1  1  0  0  0
 19 15  2  0  0  0
 10 20  1  0  0  0
 10 21  1  0  0  0
 25 27  1  0  0  0
 30 32  1  0  0  0
 35 38  1  0  0  0
 36 39  1  0  0  0
  5  8  1  0  0  0
  7  9  1  0  0  0
M  END
> <minimizedAffinity>
-6.66026

> <CNNscore>
0.3131818473

> <CNNaffinity>
4.8521986008

> <CNN_VS>
1.5196205378

> <CNNaffinity_variance>
0.0207042098

$$$$
[H]O[C@]1([H])[C@]([H])(n2c([H])nc3c(N([H])[H])nc([H])nc32)O[C@]([H])(C([H])([H])OP(=O)(O[H])OP(=O)(O[H])OP(=O)(O[H])O[H])[C@]1([H])O[H]


 39 41  0  0  0  0  0  0  0  0999 V2000
   54.7106   -5.7126   -5.1427 C   0  0  0  0  0  0  0  0  0  0  0  0
   55.4089   -5.3272   -4.0302 O   0  0  0  0  0  0  0  0  0  0  0  0
   55.1999   -6.2387   -3.0233 C   0  0  0  0  0  0  0  0  0  0  0  0
   54.4344   -7.3958   -3.5683 C   0  0  0  0  0  0  0  0  0  0  0  0
   54.8169   -8.6206   -3.0991 O   0  0  0  0  0  0  0  0  0  0  0  0
   54.7010   -7.2457   -5.0724 C   0  0  0  0  0  0  0  0  0  0  0  0
   55.9806   -7.6846   -5.3930 O   0  0  0  0  0  0  0  0  0  0  0  0
   54.2987   -9.3120   -3.5524 H   0  0  0  0  0  0  0  0  0  0  0  0
   56.5676   -6.9353   -5.6643 H   0  0  0  0  0  0  0  0  0  0  0  0
   56.2129   -3.5513  -10.5791 N   0  0  0  0  0  0  0  0  0  0  0  0
   55.2104   -3.8417   -9.6087 C   0  0  0  0  0  0  0  0  0  0  0  0
   53.9177   -3.5847   -9.8150 N   0  0  0  0  0  0  0  0  0  0  0  0
   53.0070   -3.8762   -8.8698 C   0  0  0  0  0  0  0  0  0  0  0  0
   53.3840   -4.4349   -7.6935 N   0  0  0  0  0  0  0  0  0  0  0  0
   54.6577   -4.7128   -7.4338 C   0  0  0  0  0  0  0  0  0  0  0  0
   55.2769   -5.2531   -6.3725 N   0  0  0  0  0  0  0  0  0  0  0  0
   56.5882   -5.2952   -6.6679 C   0  0  0  0  0  0  0  0  0  0  0  0
   56.7861   -4.7817   -7.9118 N   0  0  0  0  0  0  0  0  0  0  0  0
   55.5963   -4.4173   -8.3966 C   0  0  0  0  0  0  0  0  0  0  0  0
   56.9903   -2.8818  -10.3606 H   0  0  0  0  0  0  0  0  0  0  0  0
   56.1258   -4.0360  -11.4989 H   0  0  0  0  0  0  0  0  0  0  0  0
   56.5402   -6.6199   -2.4481 C   0  0  0  0  0  0  0  0  0  0  0  0
   57.6097   -6.1818   -3.1807 O   0  0  0  0  0  0  0  0  0  0  0  0
   58.8288   -7.3305   -3.1242 P   0  0  0  0  0  0  0  0  0  0  0  0
   59.4339   -7.6782   -4.6767 O   0  0  0  0  0  0  0  0  0  0  0  0
   60.0207   -6.7992   -2.3233 O   0  0  0  0  0  0  0  0  0  0  0  0
   58.9802   -7.1474   -5.3701 H   0  0  0  0  0  0  0  0  0  0  0  0
   58.3640   -8.7710   -2.4219 O   0  0  0  0  0  0  0  0  0  0  0  0
   59.5706   -9.9224   -2.3743 P   0  0  0  0  0  0  0  0  0  0  0  0
   60.7516   -9.3763   -1.2631 O   0  0  0  0  0  0  0  0  0  0  0  0
   59.0934  -11.2606   -1.8476 O   0  0  0  0  0  0  0  0  0  0  0  0
   60.6166   -8.4318   -1.0248 H   0  0  0  0  0  0  0  0  0  0  0  0
   60.3641  -10.0951   -3.8604 O   0  0  0  0  0  0  0  0  0  0  0  0
   60.9562  -11.6968   -3.9080 P   0  0  0  0  0  0  0  0  0  0  0  0
   61.7096  -12.1039   -2.4498 O   0  0  0  0  0  0  0  0  0  0  0  0
   59.7479  -12.8056   -4.2108 O   0  0  0  0  0  0  0  0  0  0  0  0
   62.0063  -11.8328   -5.0025 O   0  0  0  0  0  0  0  0  0  0  0  0
   62.2110  -11.2980   -2.1569 H   0  0  0  0  0  0  0  0  0  0  0  0
   59.4325  -12.8307   -5.1410 H   0  0  0  0  0  0  0  0  0  0  0  0
 10 11  1  0  0  0
 11 12  2  0  0  0
 12 13  1  0  0  0
 13 14  2  0  0  0
 14 15  1  0  0  0
 15 16  1  0  0  0
 16 17  1  0  0  0
 17 18  2  0  0  0
 18 19  1  0  0  0
 16  1  1  0  0  0
  1  2  1  0  0  0
  2  3  1  0  0  0
  3 22  1  0  0  0
 22 23  1  0  0  0
 23 24  1  0  0  0
 24 25  1  0  0  0
 24 26  2  0  0  0
 24 28  1  0  0  0
 28 29  1  0  0  0
 29 30  1  0  0  0
 29 31  2  0  0  0
 29 33  1  0  0  0
 33 34  1  0  0  0
 34 35  1  0  0  0
 34 36  1  0  0  0
 34 37  2  0  0  0
  3  4  1  0  0  0
  4  5  1  0  0  0
  4  6  1  0  0  0
  6  7  1  0  0  0
 19 11  1  0  0  0
  6  1  1  0  0  0
 19 15  2  0  0  0
 10 20  1  0  0  0
 10 21  1  0  0  0
 25 27  1  0  0  0
 30 32  1  0  0  0
 35 38  1  0  0  0
 36 39  1  0  0  0
  5  8  1  0  0  0
  7  9  1  0  0  0
M  END
> <minimizedAffinity>
-7.05614

> <CNNscore>
0.2911838293

> <CNNaffinity>
5.0104293823

> <CNN_VS>
1.4589560032

> <CNNaffinity_variance>
0.0694534034

$$$$
[H]O[C@]1([H])[C@]([H])(n2c([H])nc3c(N([H])[H])nc([H])nc32)O[C@]([H])(C([H])([H])OP(=O)(O[H])OP(=O)(O[H])OP(=O)(O[H])O[H])[C@]1([H])O[H]


 39 41  0  0  0  0  0  0  0  0999 V2000
   54.4072   -5.2287   -7.9804 C   0  0  0  0  0  0  0  0  0  0  0  0
   53.9979   -6.2962   -7.2277 O   0  0  0  0  0  0  0  0  0  0  0  0
   55.0965   -6.9168   -6.6832 C   0  0  0  0  0  0  0  0  0  0  0  0
   56.3080   -6.0973   -6.9704 C   0  0  0  0  0  0  0  0  0  0  0  0
   57.2179   -6.0260   -5.9536 O   0  0  0  0  0  0  0  0  0  0  0  0
   55.6768   -4.7320   -7.2758 C   0  0  0  0  0  0  0  0  0  0  0  0
   55.2808   -4.0979   -6.1036 O   0  0  0  0  0  0  0  0  0  0  0  0
   57.9425   -5.4274   -6.2154 H   0  0  0  0  0  0  0  0  0  0  0  0
   54.2951   -4.0418   -6.0325 H   0  0  0  0  0  0  0  0  0  0  0  0
   49.8467   -1.2758   -7.7367 N   0  0  0  0  0  0  0  0  0  0  0  0
   50.4727   -2.4582   -7.2458 C   0  0  0  0  0  0  0  0  0  0  0  0
   49.9539   -3.1848   -6.2544 N   0  0  0  0  0  0  0  0  0  0  0  0
   50.5805   -4.2939   -5.8242 C   0  0  0  0  0  0  0  0  0  0  0  0
   51.7471   -4.6933   -6.3878 N   0  0  0  0  0  0  0  0  0  0  0  0
   52.3095   -4.0084   -7.3785 C   0  0  0  0  0  0  0  0  0  0  0  0
   53.4334   -4.1875   -8.0901 N   0  0  0  0  0  0  0  0  0  0  0  0
   53.5006   -3.1741   -8.9716 C   0  0  0  0  0  0  0  0  0  0  0  0
   52.4198   -2.3643   -8.8097 N   0  0  0  0  0  0  0  0  0  0  0  0
   51.6741   -2.8715   -7.8247 C   0  0  0  0  0  0  0  0  0  0  0  0
   50.3384   -0.3505   -7.6868 H   0  0  0  0  0  0  0  0  0  0  0  0
   48.8906   -1.3871   -8.1393 H   0  0  0  0  0  0  0  0  0  0  0  0
   54.8410   -7.1195   -5.2113 C   0  0  0  0  0  0  0  0  0  0  0  0
   53.9457   -6.2369   -4.6711 O   0  0  0  0  0  0  0  0  0  0  0  0
   54.2303   -6.0952   -3.0255 P   0  0  0  0  0  0  0  0  0  0  0  0
   55.2492   -4.7769   -2.6775 O   0  0  0  0  0  0  0  0  0  0  0  0
   52.9207   -5.8150   -2.2835 O   0  0  0  0  0  0  0  0  0  0  0  0
   55.5109   -4.2951   -3.4947 H   0  0  0  0  0  0  0  0  0  0  0  0
   54.9053   -7.4584   -2.3397 O   0  0  0  0  0  0  0  0  0  0  0  0
   54.9445   -7.4297   -0.6719 P   0  0  0  0  0  0  0  0  0  0  0  0
   54.7999   -5.7951   -0.1875 O   0  0  0  0  0  0  0  0  0  0  0  0
   53.7745   -8.1548   -0.0382 O   0  0  0  0  0  0  0  0  0  0  0  0
   54.9269   -5.1797   -0.9439 H   0  0  0  0  0  0  0  0  0  0  0  0
   56.4191   -7.9794   -0.0462 O   0  0  0  0  0  0  0  0  0  0  0  0
   57.6395   -7.3452   -1.0592 P   0  0  0  0  0  0  0  0  0  0  0  0
   59.1710   -7.5975   -0.3877 O   0  0  0  0  0  0  0  0  0  0  0  0
   57.6079   -8.0228   -2.5826 O   0  0  0  0  0  0  0  0  0  0  0  0
   57.4638   -5.8399   -1.2087 O   0  0  0  0  0  0  0  0  0  0  0  0
   59.0784   -7.4471    0.5898 H   0  0  0  0  0  0  0  0  0  0  0  0
   56.8796   -7.7068   -3.1614 H   0  0  0  0  0  0  0  0  0  0  0  0
 10 11  1  0  0  0
 11 12  2  0  0  0
 12 13  1  0  0  0
 13 14  2  0  0  0
 14 15  1  0  0  0
 15 16  1  0  0  0
 16 17  1  0  0  0
 17 18  2  0  0  0
 18 19  1  0  0  0
 16  1  1  0  0  0
  1  2  1  0  0  0
  2  3  1  0  0  0
  3 22  1  0  0  0
 22 23  1  0  0  0
 23 24  1  0  0  0
 24 25  1  0  0  0
 24 26  2  0  0  0
 24 28  1  0  0  0
 28 29  1  0  0  0
 29 30  1  0  0  0
 29 31  2  0  0  0
 29 33  1  0  0  0
 33 34  1  0  0  0
 34 35  1  0  0  0
 34 36  1  0  0  0
 34 37  2  0  0  0
  3  4  1  0  0  0
  4  5  1  0  0  0
  4  6  1  0  0  0
  6  7  1  0  0  0
 19 11  1  0  0  0
  6  1  1  0  0  0
 19 15  2  0  0  0
 10 20  1  0  0  0
 10 21  1  0  0  0
 25 27  1  0  0  0
 30 32  1  0  0  0
 35 38  1  0  0  0
 36 39  1  0  0  0
  5  8  1  0  0  0
  7  9  1  0  0  0
M  END
> <minimizedAffinity>
-6.80417

> <CNNscore>
0.2629165351

> <CNNaffinity>
5.1431493759

> <CNN_VS>
1.3522189856

> <CNNaffinity_variance>
0.0790579095

$$$$
[H]Oc1c([H])c([H])c2oc(=O)c3c([H])c(OC([H])([H])C([H])([H])c4c([H])c([H])c([H])c([H])c4[H])c([H])c([H])c3c2c1[H]


 26 29  0  0  0  0  0  0  0  0999 V2000
   53.9587   -5.0903   -6.3157 C   0  0  0  0  0  0  0  0  0  0  0  0
   55.2537   -5.6221   -6.2774 C   0  0  0  0  0  0  0  0  0  0  0  0
   56.1582   -5.5391   -7.3036 C   0  0  0  0  0  0  0  0  0  0  0  0
   55.7608   -4.8866   -8.4487 C   0  0  0  0  0  0  0  0  0  0  0  0
   56.5801   -4.7378   -9.5483 C   0  0  0  0  0  0  0  0  0  0  0  0
   56.1184   -4.0632  -10.6863 C   0  0  0  0  0  0  0  0  0  0  0  0
   54.8936   -3.5734  -10.6935 O   0  0  0  0  0  0  0  0  0  0  0  0
   54.1088   -3.7054   -9.6648 C   0  0  0  0  0  0  0  0  0  0  0  0
   52.9495   -3.2055   -9.7559 O   0  0  0  0  0  0  0  0  0  0  0  0
   54.4875   -4.3525   -8.5142 C   0  0  0  0  0  0  0  0  0  0  0  0
   53.5809   -4.4454   -7.4649 C   0  0  0  0  0  0  0  0  0  0  0  0
   56.9488   -3.9247  -11.7721 C   0  0  0  0  0  0  0  0  0  0  0  0
   58.2156   -4.4508  -11.7199 C   0  0  0  0  0  0  0  0  0  0  0  0
   58.7125   -5.1167  -10.6345 C   0  0  0  0  0  0  0  0  0  0  0  0
   59.9629   -5.6620  -10.5227 O   0  0  0  0  0  0  0  0  0  0  0  0
   57.8574   -5.2549   -9.5268 C   0  0  0  0  0  0  0  0  0  0  0  0
   60.6844   -5.6550  -11.2031 H   0  0  0  0  0  0  0  0  0  0  0  0
   53.1231   -5.2232   -5.2478 O   0  0  0  0  0  0  0  0  0  0  0  0
   52.2541   -6.1921   -4.8503 C   0  0  0  0  0  0  0  0  0  0  0  0
   50.9939   -6.1857   -5.6693 C   0  0  0  0  0  0  0  0  0  0  0  0
   50.2360   -4.9150   -5.4861 C   0  0  0  0  0  0  0  0  0  0  0  0
   50.1555   -4.0070   -6.5354 C   0  0  0  0  0  0  0  0  0  0  0  0
   49.4423   -2.8148   -6.3619 C   0  0  0  0  0  0  0  0  0  0  0  0
   48.8257   -2.5411   -5.1652 C   0  0  0  0  0  0  0  0  0  0  0  0
   48.9163   -3.4512   -4.1386 C   0  0  0  0  0  0  0  0  0  0  0  0
   49.6249   -4.6478   -4.2946 C   0  0  0  0  0  0  0  0  0  0  0  0
  1 18  1  0  0  0
 18 19  1  0  0  0
 19 20  1  0  0  0
 20 21  1  0  0  0
 21 22  2  0  0  0
 22 23  1  0  0  0
 23 24  2  0  0  0
 24 25  1  0  0  0
 25 26  2  0  0  0
  1  2  2  0  0  0
  2  3  1  0  0  0
  3  4  2  0  0  0
  4  5  1  0  0  0
  5  6  2  0  0  0
  6  7  1  0  0  0
  7  8  1  0  0  0
  8  9  2  0  0  0
  8 10  1  0  0  0
 10 11  2  0  0  0
  6 12  1  0  0  0
 12 13  2  0  0  0
 13 14  1  0  0  0
 14 15  1  0  0  0
 14 16  2  0  0  0
 11  1  1  0  0  0
 26 21  1  0  0  0
 10  4  1  0  0  0
 16  5  1  0  0  0
 15 17  1  0  0  0
M  END
> <minimizedAffinity>
-10.75178

> <CNNscore>
0.6823146343

> <CNNaffinity>
6.4121727943

> <CNN_VS>
4.3751192093

> <CNNaffinity_variance>
0.2006734312

$$$$
[H]Oc1c([H])c([H])c2oc(=O)c3c([H])c(OC([H])([H])C([H])([H])c4c([H])c([H])c([H])c([H])c4[H])c([H])c([H])c3c2c1[H]


 26 29  0  0  0  0  0  0  0  0999 V2000
   55.4225   -5.1748   -6.2184 C   0  0  0  0  0  0  0  0  0  0  0  0
   56.7434   -5.4383   -6.6020 C   0  0  0  0  0  0  0  0  0  0  0  0
   57.2419   -5.2335   -7.8619 C   0  0  0  0  0  0  0  0  0  0  0  0
   56.3801   -4.7340   -8.8121 C   0  0  0  0  0  0  0  0  0  0  0  0
   56.7633   -4.4855  -10.1136 C   0  0  0  0  0  0  0  0  0  0  0  0
   55.8396   -3.9767  -11.0362 C   0  0  0  0  0  0  0  0  0  0  0  0
   54.6021   -3.7388  -10.6461 O   0  0  0  0  0  0  0  0  0  0  0  0
   54.2253   -3.9677   -9.4226 C   0  0  0  0  0  0  0  0  0  0  0  0
   53.0201   -3.7115   -9.1327 O   0  0  0  0  0  0  0  0  0  0  0  0
   55.0704   -4.4654   -8.4612 C   0  0  0  0  0  0  0  0  0  0  0  0
   54.5791   -4.6790   -7.1788 C   0  0  0  0  0  0  0  0  0  0  0  0
   56.2395   -3.7354  -12.3284 C   0  0  0  0  0  0  0  0  0  0  0  0
   57.5374   -3.9981  -12.6897 C   0  0  0  0  0  0  0  0  0  0  0  0
   58.4753   -4.4944  -11.8280 C   0  0  0  0  0  0  0  0  0  0  0  0
   59.7807   -4.7759  -12.1279 O   0  0  0  0  0  0  0  0  0  0  0  0
   58.0594   -4.7390  -10.5073 C   0  0  0  0  0  0  0  0  0  0  0  0
   60.2340   -4.6633  -13.0028 H   0  0  0  0  0  0  0  0  0  0  0  0
   55.0110   -5.4126   -4.9415 O   0  0  0  0  0  0  0  0  0  0  0  0
   53.9135   -6.0120   -4.4048 C   0  0  0  0  0  0  0  0  0  0  0  0
   52.8215   -6.1958   -5.4210 C   0  0  0  0  0  0  0  0  0  0  0  0
   51.6218   -5.3791   -5.0797 C   0  0  0  0  0  0  0  0  0  0  0  0
   51.0752   -5.4627   -3.8045 C   0  0  0  0  0  0  0  0  0  0  0  0
   49.9494   -4.6941   -3.4856 C   0  0  0  0  0  0  0  0  0  0  0  0
   49.3865   -3.8627   -4.4231 C   0  0  0  0  0  0  0  0  0  0  0  0
   49.9409   -3.7931   -5.6793 C   0  0  0  0  0  0  0  0  0  0  0  0
   51.0662   -4.5542   -6.0153 C   0  0  0  0  0  0  0  0  0  0  0  0
  1 18  1  0  0  0
 18 19  1  0  0  0
 19 20  1  0  0  0
 20 21  1  0  0  0
 21 22  2  0  0  0
 22 23  1  0  0  0
 23 24  2  0  0  0
 24 25  1  0  0  0
 25 26  2  0  0  0
  1  2  2  0  0  0
  2  3  1  0  0  0
  3  4  2  0  0  0
  4  5  1  0  0  0
  5  6  2  0  0  0
  6  7  1  0  0  0
  7  8  1  0  0  0
  8  9  2  0  0  0
  8 10  1  0  0  0
 10 11  2  0  0  0
  6 12  1  0  0  0
 12 13  2  0  0  0
 13 14  1  0  0  0
 14 15  1  0  0  0
 14 16  2  0  0  0
 11  1  1  0  0  0
 26 21  1  0  0  0
 10  4  1  0  0  0
 16  5  1  0  0  0
 15 17  1  0  0  0
M  END
> <minimizedAffinity>
-10.02799

> <CNNscore>
0.6787449121

> <CNNaffinity>
6.3725342751

> <CNN_VS>
4.3253250122

> <CNNaffinity_variance>
0.1584184766

$$$$
[H]Oc1c([H])c([H])c2oc(=O)c3c([H])c(OC([H])([H])C([H])([H])c4c([H])c([H])c([H])c([H])c4[H])c([H])c([H])c3c2c1[H]


 26 29  0  0  0  0  0  0  0  0999 V2000
   55.6681   -4.1754   -9.0097 C   0  0  0  0  0  0  0  0  0  0  0  0
   55.7197   -5.0861   -7.9470 C   0  0  0  0  0  0  0  0  0  0  0  0
   54.6888   -5.3222   -7.0756 C   0  0  0  0  0  0  0  0  0  0  0  0
   53.5243   -4.6124   -7.2628 C   0  0  0  0  0  0  0  0  0  0  0  0
   52.4179   -4.7619   -6.4527 C   0  0  0  0  0  0  0  0  0  0  0  0
   51.2603   -4.0102   -6.6935 C   0  0  0  0  0  0  0  0  0  0  0  0
   51.2412   -3.1597   -7.7017 O   0  0  0  0  0  0  0  0  0  0  0  0
   52.2761   -3.0072   -8.4746 C   0  0  0  0  0  0  0  0  0  0  0  0
   52.1727   -2.1701   -9.4184 O   0  0  0  0  0  0  0  0  0  0  0  0
   53.4457   -3.7062   -8.3036 C   0  0  0  0  0  0  0  0  0  0  0  0
   54.5006   -3.4771   -9.1791 C   0  0  0  0  0  0  0  0  0  0  0  0
   50.1679   -4.1725   -5.8760 C   0  0  0  0  0  0  0  0  0  0  0  0
   50.2331   -5.0691   -4.8387 C   0  0  0  0  0  0  0  0  0  0  0  0
   51.3378   -5.8252   -4.5625 C   0  0  0  0  0  0  0  0  0  0  0  0
   51.4632   -6.7331   -3.5459 O   0  0  0  0  0  0  0  0  0  0  0  0
   52.4521   -5.6540   -5.4029 C   0  0  0  0  0  0  0  0  0  0  0  0
   50.7806   -6.9740   -2.8680 H   0  0  0  0  0  0  0  0  0  0  0  0
   56.7449   -4.0013   -9.8262 O   0  0  0  0  0  0  0  0  0  0  0  0
   57.2652   -4.7175  -10.8596 C   0  0  0  0  0  0  0  0  0  0  0  0
   57.9382   -3.8336  -11.8720 C   0  0  0  0  0  0  0  0  0  0  0  0
   57.3611   -4.0322  -13.2322 C   0  0  0  0  0  0  0  0  0  0  0  0
   57.8717   -3.3119  -14.3058 C   0  0  0  0  0  0  0  0  0  0  0  0
   57.3294   -3.5007  -15.5825 C   0  0  0  0  0  0  0  0  0  0  0  0
   56.3004   -4.3899  -15.7766 C   0  0  0  0  0  0  0  0  0  0  0  0
   55.8083   -5.0935  -14.7028 C   0  0  0  0  0  0  0  0  0  0  0  0
   56.3385   -4.9174  -13.4198 C   0  0  0  0  0  0  0  0  0  0  0  0
  1 18  1  0  0  0
 18 19  1  0  0  0
 19 20  1  0  0  0
 20 21  1  0  0  0
 21 22  2  0  0  0
 22 23  1  0  0  0
 23 24  2  0  0  0
 24 25  1  0  0  0
 25 26  2  0  0  0
  1  2  2  0  0  0
  2  3  1  0  0  0
  3  4  2  0  0  0
  4  5  1  0  0  0
  5  6  2  0  0  0
  6  7  1  0  0  0
  7  8  1  0  0  0
  8  9  2  0  0  0
  8 10  1  0  0  0
 10 11  2  0  0  0
  6 12  1  0  0  0
 12 13  2  0  0  0
 13 14  1  0  0  0
 14 15  1  0  0  0
 14 16  2  0  0  0
 11  1  1  0  0  0
 26 21  1  0  0  0
 10  4  1  0  0  0
 16  5  1  0  0  0
 15 17  1  0  0  0
M  END
> <minimizedAffinity>
-9.92597

> <CNNscore>
0.6657524705

> <CNNaffinity>
6.2763710022

> <CNN_VS>
4.1785097122

> <CNNaffinity_variance>
0.1647152603

$$$$
[H]Oc1c([H])c([H])c2oc(=O)c3c([H])c(OC([H])([H])C([H])([H])c4c([H])c([H])c([H])c([H])c4[H])c([H])c([H])c3c2c1[H]


 26 29  0  0  0  0  0  0  0  0999 V2000
   54.9600   -5.2041   -7.5793 C   0  0  0  0  0  0  0  0  0  0  0  0
   54.4235   -5.7962   -6.4291 C   0  0  0  0  0  0  0  0  0  0  0  0
   53.2042   -5.4800   -5.8894 C   0  0  0  0  0  0  0  0  0  0  0  0
   52.4597   -4.5129   -6.5261 C   0  0  0  0  0  0  0  0  0  0  0  0
   51.2187   -4.1088   -6.0799 C   0  0  0  0  0  0  0  0  0  0  0  0
   50.5083   -3.1185   -6.7711 C   0  0  0  0  0  0  0  0  0  0  0  0
   51.0393   -2.5785   -7.8512 O   0  0  0  0  0  0  0  0  0  0  0  0
   52.2084   -2.9485   -8.2847 C   0  0  0  0  0  0  0  0  0  0  0  0
   52.6434   -2.3789   -9.3280 O   0  0  0  0  0  0  0  0  0  0  0  0
   52.9652   -3.9113   -7.6633 C   0  0  0  0  0  0  0  0  0  0  0  0
   54.2044   -4.2424   -8.1986 C   0  0  0  0  0  0  0  0  0  0  0  0
   49.2734   -2.7287   -6.3117 C   0  0  0  0  0  0  0  0  0  0  0  0
   48.7602   -3.3183   -5.1834 C   0  0  0  0  0  0  0  0  0  0  0  0
   49.4130   -4.2875   -4.4743 C   0  0  0  0  0  0  0  0  0  0  0  0
   48.9547   -4.9112   -3.3454 O   0  0  0  0  0  0  0  0  0  0  0  0
   50.6762   -4.6816   -4.9499 C   0  0  0  0  0  0  0  0  0  0  0  0
   48.0927   -4.7547   -2.8805 H   0  0  0  0  0  0  0  0  0  0  0  0
   56.1849   -5.5780   -8.0443 O   0  0  0  0  0  0  0  0  0  0  0  0
   57.3492   -4.9095   -8.2664 C   0  0  0  0  0  0  0  0  0  0  0  0
   58.1330   -5.5094   -9.3999 C   0  0  0  0  0  0  0  0  0  0  0  0
   57.8055   -4.8466  -10.6946 C   0  0  0  0  0  0  0  0  0  0  0  0
   56.4822   -4.5468  -10.9962 C   0  0  0  0  0  0  0  0  0  0  0  0
   56.1768   -3.9232  -12.2119 C   0  0  0  0  0  0  0  0  0  0  0  0
   57.1745   -3.6088  -13.1022 C   0  0  0  0  0  0  0  0  0  0  0  0
   58.4777   -3.9130  -12.7866 C   0  0  0  0  0  0  0  0  0  0  0  0
   58.8010   -4.5361  -11.5761 C   0  0  0  0  0  0  0  0  0  0  0  0
  1 18  1  0  0  0
 18 19  1  0  0  0
 19 20  1  0  0  0
 20 21  1  0  0  0
 21 22  2  0  0  0
 22 23  1  0  0  0
 23 24  2  0  0  0
 24 25  1  0  0  0
 25 26  2  0  0  0
  1  2  2  0  0  0
  2  3  1  0  0  0
  3  4  2  0  0  0
  4  5  1  0  0  0
  5  6  2  0  0  0
  6  7  1  0  0  0
  7  8  1  0  0  0
  8  9  2  0  0  0
  8 10  1  0  0  0
 10 11  2  0  0  0
  6 12  1  0  0  0
 12 13  2  0  0  0
 13 14  1  0  0  0
 14 15  1  0  0  0
 14 16  2  0  0  0
 11  1  1  0  0  0
 26 21  1  0  0  0
 10  4  1  0  0  0
 16  5  1  0  0  0
 15 17  1  0  0  0
M  END
> <minimizedAffinity>
-10.63834

> <CNNscore>
0.6334311962

> <CNNaffinity>
6.6251440048

> <CNN_VS>
4.1965727806

> <CNNaffinity_variance>
0.4387105107

$$$$
[H]Oc1c([H])c([H])c2oc(=O)c3c([H])c(OC([H])([H])C([H])([H])c4c([H])c([H])c([H])c([H])c4[H])c([H])c([H])c3c2c1[H]


 26 29  0  0  0  0  0  0  0  0999 V2000
   56.0559   -5.3475   -7.5385 C   0  0  0  0  0  0  0  0  0  0  0  0
   55.3949   -5.8887   -6.4288 C   0  0  0  0  0  0  0  0  0  0  0  0
   54.1018   -5.6007   -6.0783 C   0  0  0  0  0  0  0  0  0  0  0  0
   53.4096   -4.7177   -6.8759 C   0  0  0  0  0  0  0  0  0  0  0  0
   52.1038   -4.3494   -6.6271 C   0  0  0  0  0  0  0  0  0  0  0  0
   51.4517   -3.4452   -7.4757 C   0  0  0  0  0  0  0  0  0  0  0  0
   52.1000   -2.9514   -8.5131 O   0  0  0  0  0  0  0  0  0  0  0  0
   53.3314   -3.2886   -8.7612 C   0  0  0  0  0  0  0  0  0  0  0  0
   53.8785   -2.7679   -9.7770 O   0  0  0  0  0  0  0  0  0  0  0  0
   54.0377   -4.1677   -7.9775 C   0  0  0  0  0  0  0  0  0  0  0  0
   55.3505   -4.4692   -8.3199 C   0  0  0  0  0  0  0  0  0  0  0  0
   50.1509   -3.0900   -7.2121 C   0  0  0  0  0  0  0  0  0  0  0  0
   49.5158   -3.6290   -6.1211 C   0  0  0  0  0  0  0  0  0  0  0  0
   50.1076   -4.5140   -5.2638 C   0  0  0  0  0  0  0  0  0  0  0  0
   49.5283   -5.0842   -4.1626 O   0  0  0  0  0  0  0  0  0  0  0  0
   51.4389   -4.8732   -5.5395 C   0  0  0  0  0  0  0  0  0  0  0  0
   48.6057   -4.9419   -3.8276 H   0  0  0  0  0  0  0  0  0  0  0  0
   57.3469   -5.6878   -7.8101 O   0  0  0  0  0  0  0  0  0  0  0  0
   58.3331   -5.1141   -8.5519 C   0  0  0  0  0  0  0  0  0  0  0  0
   58.7649   -5.9964   -9.6894 C   0  0  0  0  0  0  0  0  0  0  0  0
   60.0733   -6.6502   -9.4006 C   0  0  0  0  0  0  0  0  0  0  0  0
   60.3309   -7.9205   -9.9023 C   0  0  0  0  0  0  0  0  0  0  0  0
   61.5606   -8.5322   -9.6311 C   0  0  0  0  0  0  0  0  0  0  0  0
   62.5076   -7.8851   -8.8751 C   0  0  0  0  0  0  0  0  0  0  0  0
   62.2350   -6.6289   -8.3873 C   0  0  0  0  0  0  0  0  0  0  0  0
   61.0112   -6.0025   -8.6487 C   0  0  0  0  0  0  0  0  0  0  0  0
  1 18  1  0  0  0
 18 19  1  0  0  0
 19 20  1  0  0  0
 20 21  1  0  0  0
 21 22  2  0  0  0
 22 23  1  0  0  0
 23 24  2  0  0  0
 24 25  1  0  0  0
 25 26  2  0  0  0
  1  2  2  0  0  0
  2  3  1  0  0  0
  3  4  2  0  0  0
  4  5  1  0  0  0
  5  6  2  0  0  0
  6  7  1  0  0  0
  7  8  1  0  0  0
  8  9  2  0  0  0
  8 10  1  0  0  0
 10 11  2  0  0  0
  6 12  1  0  0  0
 12 13  2  0  0  0
 13 14  1  0  0  0
 14 15  1  0  0  0
 14 16  2  0  0  0
 11  1  1  0  0  0
 26 21  1  0  0  0
 10  4  1  0  0  0
 16  5  1  0  0  0
 15 17  1  0  0  0
M  END
> <minimizedAffinity>
-8.56360

> <CNNscore>
0.5823121071

> <CNNaffinity>
6.0880031586

> <CNN_VS>
3.5451178551

> <CNNaffinity_variance>
0.1923117936

$$$$
[H]Oc1c([H])c([H])c2oc(=O)c3c([H])c(OC([H])([H])C([H])([H])c4c([H])c([H])c([H])c([H])c4[H])c([H])c([H])c3c2c1[H]


 26 29  0  0  0  0  0  0  0  0999 V2000
   53.5099   -6.0518   -6.0373 C   0  0  0  0  0  0  0  0  0  0  0  0
   52.7364   -6.5004   -4.9595 C   0  0  0  0  0  0  0  0  0  0  0  0
   51.5415   -5.9486   -4.5781 C   0  0  0  0  0  0  0  0  0  0  0  0
   51.0740   -4.8797   -5.3088 C   0  0  0  0  0  0  0  0  0  0  0  0
   49.8856   -4.2402   -5.0235 C   0  0  0  0  0  0  0  0  0  0  0  0
   49.4623   -3.1564   -5.8042 C   0  0  0  0  0  0  0  0  0  0  0  0
   50.2122   -2.7558   -6.8128 O   0  0  0  0  0  0  0  0  0  0  0  0
   51.3352   -3.3482   -7.0947 C   0  0  0  0  0  0  0  0  0  0  0  0
   51.9926   -2.8998   -8.0791 O   0  0  0  0  0  0  0  0  0  0  0  0
   51.8175   -4.4156   -6.3777 C   0  0  0  0  0  0  0  0  0  0  0  0
   53.0285   -4.9856   -6.7521 C   0  0  0  0  0  0  0  0  0  0  0  0
   48.2757   -2.5317   -5.5049 C   0  0  0  0  0  0  0  0  0  0  0  0
   47.5280   -2.9828   -4.4458 C   0  0  0  0  0  0  0  0  0  0  0  0
   47.8970   -4.0347   -3.6548 C   0  0  0  0  0  0  0  0  0  0  0  0
   47.1964   -4.5294   -2.5881 O   0  0  0  0  0  0  0  0  0  0  0  0
   49.1124   -4.6694   -3.9665 C   0  0  0  0  0  0  0  0  0  0  0  0
   46.3289   -4.2028   -2.2354 H   0  0  0  0  0  0  0  0  0  0  0  0
   54.6905   -6.6592   -6.3435 O   0  0  0  0  0  0  0  0  0  0  0  0
   55.9873   -6.2467   -6.3406 C   0  0  0  0  0  0  0  0  0  0  0  0
   56.1249   -4.8256   -6.8103 C   0  0  0  0  0  0  0  0  0  0  0  0
   56.6074   -4.7660   -8.2197 C   0  0  0  0  0  0  0  0  0  0  0  0
   55.7924   -4.2139   -9.2009 C   0  0  0  0  0  0  0  0  0  0  0  0
   56.2477   -4.1577  -10.5236 C   0  0  0  0  0  0  0  0  0  0  0  0
   57.4897   -4.6436  -10.8529 C   0  0  0  0  0  0  0  0  0  0  0  0
   58.2819   -5.1862   -9.8688 C   0  0  0  0  0  0  0  0  0  0  0  0
   57.8428   -5.2504   -8.5417 C   0  0  0  0  0  0  0  0  0  0  0  0
  1 18  1  0  0  0
 18 19  1  0  0  0
 19 20  1  0  0  0
 20 21  1  0  0  0
 21 22  2  0  0  0
 22 23  1  0  0  0
 23 24  2  0  0  0
 24 25  1  0  0  0
 25 26  2  0  0  0
  1  2  2  0  0  0
  2  3  1  0  0  0
  3  4  2  0  0  0
  4  5  1  0  0  0
  5  6  2  0  0  0
  6  7  1  0  0  0
  7  8  1  0  0  0
  8  9  2  0  0  0
  8 10  1  0  0  0
 10 11  2  0  0  0
  6 12  1  0  0  0
 12 13  2  0  0  0
 13 14  1  0  0  0
 14 15  1  0  0  0
 14 16  2  0  0  0
 11  1  1  0  0  0
 26 21  1  0  0  0
 10  4  1  0  0  0
 16  5  1  0  0  0
 15 17  1  0  0  0
M  END
> <minimizedAffinity>
-10.07387

> <CNNscore>
0.5551155210

> <CNNaffinity>
6.4544281960

> <CNN_VS>
3.5829532146

> <CNNaffinity_variance>
0.3738242984

$$$$
[H]Oc1c([H])c([H])c2oc(=O)c3c([H])c(OC([H])([H])C([H])([H])c4c([H])c([H])c([H])c([H])c4[H])c([H])c([H])c3c2c1[H]


 26 29  0  0  0  0  0  0  0  0999 V2000
   55.4436   -5.0824   -6.2193 C   0  0  0  0  0  0  0  0  0  0  0  0
   56.7648   -5.3376   -6.6073 C   0  0  0  0  0  0  0  0  0  0  0  0
   57.2508   -5.1556   -7.8756 C   0  0  0  0  0  0  0  0  0  0  0  0
   56.3753   -4.6892   -8.8300 C   0  0  0  0  0  0  0  0  0  0  0  0
   56.7451   -4.4659  -10.1400 C   0  0  0  0  0  0  0  0  0  0  0  0
   55.8078   -3.9903  -11.0665 C   0  0  0  0  0  0  0  0  0  0  0  0
   54.5703   -3.7594  -10.6720 O   0  0  0  0  0  0  0  0  0  0  0  0
   54.2060   -3.9649   -9.4406 C   0  0  0  0  0  0  0  0  0  0  0  0
   52.9998   -3.7176   -9.1470 O   0  0  0  0  0  0  0  0  0  0  0  0
   55.0649   -4.4294   -8.4749 C   0  0  0  0  0  0  0  0  0  0  0  0
   54.5864   -4.6197   -7.1840 C   0  0  0  0  0  0  0  0  0  0  0  0
   56.1944   -3.7737  -12.3671 C   0  0  0  0  0  0  0  0  0  0  0  0
   57.4928   -4.0280  -12.7327 C   0  0  0  0  0  0  0  0  0  0  0  0
   58.4437   -4.4922  -11.8674 C   0  0  0  0  0  0  0  0  0  0  0  0
   59.7504   -4.7638  -12.1712 O   0  0  0  0  0  0  0  0  0  0  0  0
   58.0413   -4.7117  -10.5381 C   0  0  0  0  0  0  0  0  0  0  0  0
   60.1953   -4.6656  -13.0521 H   0  0  0  0  0  0  0  0  0  0  0  0
   55.0451   -5.2960   -4.9340 O   0  0  0  0  0  0  0  0  0  0  0  0
   55.4113   -6.1874   -3.9732 C   0  0  0  0  0  0  0  0  0  0  0  0
   54.5246   -7.4009   -3.9666 C   0  0  0  0  0  0  0  0  0  0  0  0
   53.3293   -7.1929   -3.1000 C   0  0  0  0  0  0  0  0  0  0  0  0
   52.2427   -6.4782   -3.5903 C   0  0  0  0  0  0  0  0  0  0  0  0
   51.1208   -6.2850   -2.7756 C   0  0  0  0  0  0  0  0  0  0  0  0
   51.0905   -6.7961   -1.5009 C   0  0  0  0  0  0  0  0  0  0  0  0
   52.1747   -7.5004   -1.0331 C   0  0  0  0  0  0  0  0  0  0  0  0
   53.3044   -7.7032   -1.8337 C   0  0  0  0  0  0  0  0  0  0  0  0
  1 18  1  0  0  0
 18 19  1  0  0  0
 19 20  1  0  0  0
 20 21  1  0  0  0
 21 22  2  0  0  0
 22 23  1  0  0  0
 23 24  2  0  0  0
 24 25  1  0  0  0
 25 26  2  0  0  0
  1  2  2  0  0  0
  2  3  1  0  0  0
  3  4  2  0  0  0
  4  5  1  0  0  0
  5  6  2  0  0  0
  6  7  1  0  0  0
  7  8  1  0  0  0
  8  9  2  0  0  0
  8 10  1  0  0  0
 10 11  2  0  0  0
  6 12  1  0  0  0
 12 13  2  0  0  0
 13 14  1  0  0  0
 14 15  1  0  0  0
 14 16  2  0  0  0
 11  1  1  0  0  0
 26 21  1  0  0  0
 10  4  1  0  0  0
 16  5  1  0  0  0
 15 17  1  0  0  0
M  END
> <minimizedAffinity>
-8.31132

> <CNNscore>
0.5327810049

> <CNNaffinity>
5.8701987267

> <CNN_VS>
3.1275303364

> <CNNaffinity_variance>
0.2017383873

$$$$
[H]Oc1c([H])c([H])c2oc(=O)c3c([H])c(OC([H])([H])C([H])([H])c4c([H])c([H])c([H])c([H])c4[H])c([H])c([H])c3c2c1[H]


 26 29  0  0  0  0  0  0  0  0999 V2000
   53.9833   -4.9993   -7.8996 C   0  0  0  0  0  0  0  0  0  0  0  0
   53.5413   -5.7249   -6.7862 C   0  0  0  0  0  0  0  0  0  0  0  0
   52.4203   -5.4236   -6.0578 C   0  0  0  0  0  0  0  0  0  0  0  0
   51.6815   -4.3312   -6.4525 C   0  0  0  0  0  0  0  0  0  0  0  0
   50.5347   -3.9278   -5.8008 C   0  0  0  0  0  0  0  0  0  0  0  0
   49.8251   -2.8063   -6.2500 C   0  0  0  0  0  0  0  0  0  0  0  0
   50.2659   -2.1423   -7.3012 O   0  0  0  0  0  0  0  0  0  0  0  0
   51.3454   -2.5098   -7.9266 C   0  0  0  0  0  0  0  0  0  0  0  0
   51.6976   -1.8166   -8.9254 O   0  0  0  0  0  0  0  0  0  0  0  0
   52.0950   -3.5964   -7.5478 C   0  0  0  0  0  0  0  0  0  0  0  0
   53.2351   -3.9142   -8.2765 C   0  0  0  0  0  0  0  0  0  0  0  0
   48.6849   -2.4195   -5.5882 C   0  0  0  0  0  0  0  0  0  0  0  0
   48.2636   -3.1406   -4.4988 C   0  0  0  0  0  0  0  0  0  0  0  0
   48.9199   -4.2406   -4.0218 C   0  0  0  0  0  0  0  0  0  0  0  0
   48.5506   -4.9986   -2.9437 O   0  0  0  0  0  0  0  0  0  0  0  0
   50.0860   -4.6310   -4.7038 C   0  0  0  0  0  0  0  0  0  0  0  0
   47.7627   -4.8643   -2.3564 H   0  0  0  0  0  0  0  0  0  0  0  0
   55.1142   -5.3692   -8.5634 O   0  0  0  0  0  0  0  0  0  0  0  0
   56.4425   -5.2612   -8.2881 C   0  0  0  0  0  0  0  0  0  0  0  0
   56.7046   -4.3124   -7.1523 C   0  0  0  0  0  0  0  0  0  0  0  0
   56.5037   -4.9783   -5.8336 C   0  0  0  0  0  0  0  0  0  0  0  0
   56.7932   -6.3309   -5.6970 C   0  0  0  0  0  0  0  0  0  0  0  0
   56.6051   -6.9541   -4.4577 C   0  0  0  0  0  0  0  0  0  0  0  0
   56.1380   -6.2377   -3.3827 C   0  0  0  0  0  0  0  0  0  0  0  0
   55.8570   -4.9007   -3.5367 C   0  0  0  0  0  0  0  0  0  0  0  0
   56.0392   -4.2615   -4.7682 C   0  0  0  0  0  0  0  0  0  0  0  0
  1 18  1  0  0  0
 18 19  1  0  0  0
 19 20  1  0  0  0
 20 21  1  0  0  0
 21 22  2  0  0  0
 22 23  1  0  0  0
 23 24  2  0  0  0
 24 25  1  0  0  0
 25 26  2  0  0  0
  1  2  2  0  0  0
  2  3  1  0  0  0
  3  4  2  0  0  0
  4  5  1  0  0  0
  5  6  2  0  0  0
  6  7  1  0  0  0
  7  8  1  0  0  0
  8  9  2  0  0  0
  8 10  1  0  0  0
 10 11  2  0  0  0
  6 12  1  0  0  0
 12 13  2  0  0  0
 13 14  1  0  0  0
 14 15  1  0  0  0
 14 16  2  0  0  0
 11  1  1  0  0  0
 26 21  1  0  0  0
 10  4  1  0  0  0
 16  5  1  0  0  0
 15 17  1  0  0  0
M  END
> <minimizedAffinity>
-8.83777

> <CNNscore>
0.5295570493

> <CNNaffinity>
6.6466684341

> <CNN_VS>
3.5197901726

> <CNNaffinity_variance>
0.5302003026

$$$$
[H]Oc1c([H])c([H])c2oc(=O)c3c([H])c(OC([H])([H])C([H])([H])c4c([H])c([H])c([H])c([H])c4[H])c([H])c([H])c3c2c1[H]


 26 29  0  0  0  0  0  0  0  0999 V2000
   52.5932   -3.4278   -8.4933 C   0  0  0  0  0  0  0  0  0  0  0  0
   53.1458   -3.2470   -9.7674 C   0  0  0  0  0  0  0  0  0  0  0  0
   54.4165   -3.6171  -10.1226 C   0  0  0  0  0  0  0  0  0  0  0  0
   55.1994   -4.2070   -9.1561 C   0  0  0  0  0  0  0  0  0  0  0  0
   56.4933   -4.6227   -9.3916 C   0  0  0  0  0  0  0  0  0  0  0  0
   57.2412   -5.2169   -8.3665 C   0  0  0  0  0  0  0  0  0  0  0  0
   56.6943   -5.3736   -7.1763 O   0  0  0  0  0  0  0  0  0  0  0  0
   55.4755   -4.9870   -6.9384 C   0  0  0  0  0  0  0  0  0  0  0  0
   55.0288   -5.1749   -5.7690 O   0  0  0  0  0  0  0  0  0  0  0  0
   54.6796   -4.3971   -7.8895 C   0  0  0  0  0  0  0  0  0  0  0  0
   53.3886   -4.0157   -7.5441 C   0  0  0  0  0  0  0  0  0  0  0  0
   58.5286   -5.6247   -8.6197 C   0  0  0  0  0  0  0  0  0  0  0  0
   59.0566   -5.4414   -9.8734 C   0  0  0  0  0  0  0  0  0  0  0  0
   58.3688   -4.8675  -10.9058 C   0  0  0  0  0  0  0  0  0  0  0  0
   58.8394   -4.6582  -12.1740 O   0  0  0  0  0  0  0  0  0  0  0  0
   57.0519   -4.4525  -10.6399 C   0  0  0  0  0  0  0  0  0  0  0  0
   59.7369   -4.8887  -12.5274 H   0  0  0  0  0  0  0  0  0  0  0  0
   51.3192   -3.0250   -8.2269 O   0  0  0  0  0  0  0  0  0  0  0  0
   50.7125   -2.4920   -7.1316 C   0  0  0  0  0  0  0  0  0  0  0  0
   49.5717   -3.3448   -6.6517 C   0  0  0  0  0  0  0  0  0  0  0  0
   49.9660   -4.1589   -5.4665 C   0  0  0  0  0  0  0  0  0  0  0  0
   49.3434   -3.9368   -4.2439 C   0  0  0  0  0  0  0  0  0  0  0  0
   49.7141   -4.7031   -3.1325 C   0  0  0  0  0  0  0  0  0  0  0  0
   50.6855   -5.6678   -3.2456 C   0  0  0  0  0  0  0  0  0  0  0  0
   51.2904   -5.8733   -4.4631 C   0  0  0  0  0  0  0  0  0  0  0  0
   50.9321   -5.1166   -5.5844 C   0  0  0  0  0  0  0  0  0  0  0  0
  1 18  1  0  0  0
 18 19  1  0  0  0
 19 20  1  0  0  0
 20 21  1  0  0  0
 21 22  2  0  0  0
 22 23  1  0  0  0
 23 24  2  0  0  0
 24 25  1  0  0  0
 25 26  2  0  0  0
  1  2  2  0  0  0
  2  3  1  0  0  0
  3  4  2  0  0  0
  4  5  1  0  0  0
  5  6  2  0  0  0
  6  7  1  0  0  0
  7  8  1  0  0  0
  8  9  2  0  0  0
  8 10  1  0  0  0
 10 11  2  0  0  0
  6 12  1  0  0  0
 12 13  2  0  0  0
 13 14  1  0  0  0
 14 15  1  0  0  0
 14 16  2  0  0  0
 11  1  1  0  0  0
 26 21  1  0  0  0
 10  4  1  0  0  0
 16  5  1  0  0  0
 15 17  1  0  0  0
M  END
> <minimizedAffinity>
-10.72086

> <CNNscore>
0.5015370250

> <CNNaffinity>
6.2865247726

> <CNN_VS>
3.1529250145

> <CNNaffinity_variance>
0.1464383751

$$$$
[H]OC(=O)C1=c2c([H])nc(N([H])C3([H])C([H])([H])C3([H])[H])nc2=C(N([H])C([H])([H])c2c([H])c([H])c(OC([H])([H])[H])c([H])c2[H])N=C(C([H])(F)F)N1C([H])([H])[H]


 35 38  0  0  0  0  0  0  0  0999 V2000
   54.8485   -5.7463   -5.0438 N   0  0  0  0  0  0  0  0  0  0  0  0
   53.5874   -6.3553   -4.7727 C   0  0  0  0  0  0  0  0  0  0  0  0
   55.0149   -5.2826   -6.4041 C   0  0  0  0  0  0  0  0  0  0  0  0
   56.1632   -5.2537   -7.0615 C   0  0  0  0  0  0  0  0  0  0  0  0
   57.4333   -5.6264   -6.5925 C   0  0  0  0  0  0  0  0  0  0  0  0
   57.8557   -5.8619   -5.3589 C   0  0  0  0  0  0  0  0  0  0  0  0
   57.0879   -5.7508   -4.1520 N   0  0  0  0  0  0  0  0  0  0  0  0
   55.7881   -5.6979   -3.9818 C   0  0  0  0  0  0  0  0  0  0  0  0
   58.4818   -5.7203   -7.4151 N   0  0  0  0  0  0  0  0  0  0  0  0
   58.3703   -5.4606   -8.7262 C   0  0  0  0  0  0  0  0  0  0  0  0
   57.1669   -5.1072   -9.1660 N   0  0  0  0  0  0  0  0  0  0  0  0
   56.0514   -4.9911   -8.3966 C   0  0  0  0  0  0  0  0  0  0  0  0
   53.8885   -4.6269   -7.0003 C   0  0  0  0  0  0  0  0  0  0  0  0
   52.8815   -5.3936   -7.6721 O   0  0  0  0  0  0  0  0  0  0  0  0
   53.6676   -3.4038   -6.9913 O   0  0  0  0  0  0  0  0  0  0  0  0
   52.6986   -5.2161   -8.6409 H   0  0  0  0  0  0  0  0  0  0  0  0
   55.2629   -5.5967   -2.6079 C   0  0  0  0  0  0  0  0  0  0  0  0
   54.3636   -6.6107   -2.2857 F   0  0  0  0  0  0  0  0  0  0  0  0
   56.1604   -5.3050   -1.6385 F   0  0  0  0  0  0  0  0  0  0  0  0
   59.2142   -6.2240   -5.2534 N   0  0  0  0  0  0  0  0  0  0  0  0
   59.9138   -5.4306   -5.3593 H   0  0  0  0  0  0  0  0  0  0  0  0
   59.6928   -7.5434   -5.0165 C   0  0  0  0  0  0  0  0  0  0  0  0
   61.1138   -7.6441   -4.6539 C   0  0  0  0  0  0  0  0  0  0  0  0
   62.0968   -8.2716   -5.3738 C   0  0  0  0  0  0  0  0  0  0  0  0
   63.4291   -8.3102   -4.9479 C   0  0  0  0  0  0  0  0  0  0  0  0
   63.7936   -7.7031   -3.7647 C   0  0  0  0  0  0  0  0  0  0  0  0
   62.8192   -7.0752   -3.0404 C   0  0  0  0  0  0  0  0  0  0  0  0
   61.5085   -7.0385   -3.4620 C   0  0  0  0  0  0  0  0  0  0  0  0
   65.1067   -7.7142   -3.2984 O   0  0  0  0  0  0  0  0  0  0  0  0
   65.6123   -6.5008   -2.7376 C   0  0  0  0  0  0  0  0  0  0  0  0
   59.4922   -5.5586   -9.6105 N   0  0  0  0  0  0  0  0  0  0  0  0
   59.9032   -4.7036  -10.0105 H   0  0  0  0  0  0  0  0  0  0  0  0
   60.0165   -6.8555   -9.9174 C   0  0  0  0  0  0  0  0  0  0  0  0
   60.6488   -7.7124   -8.9042 C   0  0  0  0  0  0  0  0  0  0  0  0
   59.2677   -8.0624   -9.3297 C   0  0  0  0  0  0  0  0  0  0  0  0
  1  2  1  0  0  0
  1  3  1  0  0  0
  3 13  1  0  0  0
 13 14  1  0  0  0
 13 15  2  0  0  0
  3  4  2  0  0  0
  4  5  1  0  0  0
  5  6  2  0  0  0
  6 20  1  0  0  0
 20 22  1  0  0  0
 22 23  1  0  0  0
 23 24  2  0  0  0
 24 25  1  0  0  0
 25 26  2  0  0  0
 26 29  1  0  0  0
 29 30  1  0  0  0
 26 27  1  0  0  0
 27 28  2  0  0  0
  6  7  1  0  0  0
  7  8  2  0  0  0
  8 17  1  0  0  0
 17 18  1  0  0  0
 17 19  1  0  0  0
  5  9  1  0  0  0
  9 10  2  0  0  0
 10 31  1  0  0  0
 31 33  1  0  0  0
 33 34  1  0  0  0
 34 35  1  0  0  0
 10 11  1  0  0  0
 11 12  2  0  0  0
  8  1  1  0  0  0
 35 33  1  0  0  0
 12  4  1  0  0  0
 28 23  1  0  0  0
 14 16  1  0  0  0
 20 21  1  0  0  0
 31 32  1  0  0  0
M  END
> <minimizedAffinity>
6.20608

> <CNNscore>
0.4011276364

> <CNNaffinity>
5.5423760414

> <CNN_VS>
2.2232000828

> <CNNaffinity_variance>
1.2581226826

$$$$
[H]OC(=O)C1=c2c([H])nc(N([H])C3([H])C([H])([H])C3([H])[H])nc2=C(N([H])C([H])([H])c2c([H])c([H])c(OC([H])([H])[H])c([H])c2[H])N=C(C([H])(F)F)N1C([H])([H])[H]


 35 38  0  0  0  0  0  0  0  0999 V2000
   54.1135   -6.9876   -4.0237 N   0  0  0  0  0  0  0  0  0  0  0  0
   54.7771   -8.1572   -4.4994 C   0  0  0  0  0  0  0  0  0  0  0  0
   53.1433   -7.2274   -2.9775 C   0  0  0  0  0  0  0  0  0  0  0  0
   52.0371   -6.5249   -2.7922 C   0  0  0  0  0  0  0  0  0  0  0  0
   51.5898   -5.4138   -3.5254 C   0  0  0  0  0  0  0  0  0  0  0  0
   52.2300   -4.6491   -4.3975 C   0  0  0  0  0  0  0  0  0  0  0  0
   53.6060   -4.7588   -4.7888 N   0  0  0  0  0  0  0  0  0  0  0  0
   54.4473   -5.7547   -4.6416 C   0  0  0  0  0  0  0  0  0  0  0  0
   50.3660   -4.9075   -3.3493 N   0  0  0  0  0  0  0  0  0  0  0  0
   49.5093   -5.4354   -2.4627 C   0  0  0  0  0  0  0  0  0  0  0  0
   49.9367   -6.4862   -1.7700 N   0  0  0  0  0  0  0  0  0  0  0  0
   51.1631   -7.0617   -1.8911 C   0  0  0  0  0  0  0  0  0  0  0  0
   53.5167   -8.1644   -1.9594 C   0  0  0  0  0  0  0  0  0  0  0  0
   52.8649   -9.4380   -1.8789 O   0  0  0  0  0  0  0  0  0  0  0  0
   54.3965   -7.9938   -1.0982 O   0  0  0  0  0  0  0  0  0  0  0  0
   52.3745   -9.6827   -1.0404 H   0  0  0  0  0  0  0  0  0  0  0  0
   55.8190   -5.5981   -5.1588 C   0  0  0  0  0  0  0  0  0  0  0  0
   55.9550   -5.9920   -6.4881 F   0  0  0  0  0  0  0  0  0  0  0  0
   56.4570   -4.4486   -4.8394 F   0  0  0  0  0  0  0  0  0  0  0  0
   51.4599   -3.6077   -4.9546 N   0  0  0  0  0  0  0  0  0  0  0  0
   51.5475   -2.6617   -4.4776 H   0  0  0  0  0  0  0  0  0  0  0  0
   50.6028   -3.7383   -6.0835 C   0  0  0  0  0  0  0  0  0  0  0  0
   50.6825   -5.0241   -6.7915 C   0  0  0  0  0  0  0  0  0  0  0  0
   49.7340   -6.0132   -6.7953 C   0  0  0  0  0  0  0  0  0  0  0  0
   49.8982   -7.2065   -7.5073 C   0  0  0  0  0  0  0  0  0  0  0  0
   51.0465   -7.4208   -8.2401 C   0  0  0  0  0  0  0  0  0  0  0  0
   51.9978   -6.4393   -8.2415 C   0  0  0  0  0  0  0  0  0  0  0  0
   51.8336   -5.2655   -7.5397 C   0  0  0  0  0  0  0  0  0  0  0  0
   51.2565   -8.5920   -8.9654 O   0  0  0  0  0  0  0  0  0  0  0  0
   52.1812   -8.5310  -10.0533 C   0  0  0  0  0  0  0  0  0  0  0  0
   48.1976   -4.8944   -2.2701 N   0  0  0  0  0  0  0  0  0  0  0  0
   47.8665   -4.6847   -1.3182 H   0  0  0  0  0  0  0  0  0  0  0  0
   47.3745   -4.6579   -3.4180 C   0  0  0  0  0  0  0  0  0  0  0  0
   46.1264   -3.8843   -3.3498 C   0  0  0  0  0  0  0  0  0  0  0  0
   47.3143   -3.2140   -3.9418 C   0  0  0  0  0  0  0  0  0  0  0  0
  1  2  1  0  0  0
  1  3  1  0  0  0
  3 13  1  0  0  0
 13 14  1  0  0  0
 13 15  2  0  0  0
  3  4  2  0  0  0
  4  5  1  0  0  0
  5  6  2  0  0  0
  6 20  1  0  0  0
 20 22  1  0  0  0
 22 23  1  0  0  0
 23 24  2  0  0  0
 24 25  1  0  0  0
 25 26  2  0  0  0
 26 29  1  0  0  0
 29 30  1  0  0  0
 26 27  1  0  0  0
 27 28  2  0  0  0
  6  7  1  0  0  0
  7  8  2  0  0  0
  8 17  1  0  0  0
 17 18  1  0  0  0
 17 19  1  0  0  0
  5  9  1  0  0  0
  9 10  2  0  0  0
 10 31  1  0  0  0
 31 33  1  0  0  0
 33 34  1  0  0  0
 34 35  1  0  0  0
 10 11  1  0  0  0
 11 12  2  0  0  0
  8  1  1  0  0  0
 35 33  1  0  0  0
 12  4  1  0  0  0
 28 23  1  0  0  0
 14 16  1  0  0  0
 20 21  1  0  0  0
 31 32  1  0  0  0
M  END
> <minimizedAffinity>
5.68708

> <CNNscore>
0.3969135284

> <CNNaffinity>
6.5299963951

> <CNN_VS>
2.5918438435

> <CNNaffinity_variance>
0.5453306437

$$$$
[H]OC(=O)C1=c2c([H])nc(N([H])C3([H])C([H])([H])C3([H])[H])nc2=C(N([H])C([H])([H])c2c([H])c([H])c(OC([H])([H])[H])c([H])c2[H])N=C(C([H])(F)F)N1C([H])([H])[H]


 35 38  0  0  0  0  0  0  0  0999 V2000
   57.8044   -4.5614  -10.6183 N   0  0  0  0  0  0  0  0  0  0  0  0
   58.8163   -4.0476  -11.4824 C   0  0  0  0  0  0  0  0  0  0  0  0
   56.4505   -4.2497  -11.0220 C   0  0  0  0  0  0  0  0  0  0  0  0
   55.4361   -4.0584  -10.1938 C   0  0  0  0  0  0  0  0  0  0  0  0
   55.4420   -4.1403   -8.7918 C   0  0  0  0  0  0  0  0  0  0  0  0
   56.3481   -4.6445   -7.9672 C   0  0  0  0  0  0  0  0  0  0  0  0
   57.5773   -5.2885   -8.3313 N   0  0  0  0  0  0  0  0  0  0  0  0
   58.2325   -5.2731   -9.4679 C   0  0  0  0  0  0  0  0  0  0  0  0
   54.3925   -3.7467   -8.0648 N   0  0  0  0  0  0  0  0  0  0  0  0
   53.2842   -3.2576   -8.6403 C   0  0  0  0  0  0  0  0  0  0  0  0
   53.2821   -3.1826   -9.9673 N   0  0  0  0  0  0  0  0  0  0  0  0
   54.3076   -3.5590  -10.7776 C   0  0  0  0  0  0  0  0  0  0  0  0
   56.1584   -4.3549  -12.4211 C   0  0  0  0  0  0  0  0  0  0  0  0
   56.0368   -3.1731  -13.2222 O   0  0  0  0  0  0  0  0  0  0  0  0
   56.0007   -5.4118  -13.0559 O   0  0  0  0  0  0  0  0  0  0  0  0
   55.1741   -2.9935  -13.6988 H   0  0  0  0  0  0  0  0  0  0  0  0
   59.4973   -6.0252   -9.5602 C   0  0  0  0  0  0  0  0  0  0  0  0
   60.4104   -5.6923   -8.5622 F   0  0  0  0  0  0  0  0  0  0  0  0
   59.3946   -7.3496   -9.8168 F   0  0  0  0  0  0  0  0  0  0  0  0
   56.0240   -4.5529   -6.5981 N   0  0  0  0  0  0  0  0  0  0  0  0
   55.7407   -3.5880   -6.2534 H   0  0  0  0  0  0  0  0  0  0  0  0
   56.0467   -5.6388   -5.6780 C   0  0  0  0  0  0  0  0  0  0  0  0
   54.9579   -5.6526   -4.6905 C   0  0  0  0  0  0  0  0  0  0  0  0
   55.0825   -5.4811   -3.3365 C   0  0  0  0  0  0  0  0  0  0  0  0
   53.9815   -5.5054   -2.4734 C   0  0  0  0  0  0  0  0  0  0  0  0
   52.7138   -5.7074   -2.9770 C   0  0  0  0  0  0  0  0  0  0  0  0
   52.5807   -5.8795   -4.3264 C   0  0  0  0  0  0  0  0  0  0  0  0
   53.6662   -5.8551   -5.1738 C   0  0  0  0  0  0  0  0  0  0  0  0
   51.5864   -5.7398   -2.1586 O   0  0  0  0  0  0  0  0  0  0  0  0
   50.3229   -5.4821   -2.7746 C   0  0  0  0  0  0  0  0  0  0  0  0
   52.1569   -2.8363   -7.8644 N   0  0  0  0  0  0  0  0  0  0  0  0
   51.9739   -1.8318   -7.7334 H   0  0  0  0  0  0  0  0  0  0  0  0
   51.3070   -3.8336   -7.2862 C   0  0  0  0  0  0  0  0  0  0  0  0
   50.4716   -3.5722   -6.1054 C   0  0  0  0  0  0  0  0  0  0  0  0
   49.7915   -3.6186   -7.4268 C   0  0  0  0  0  0  0  0  0  0  0  0
  1  2  1  0  0  0
  1  3  1  0  0  0
  3 13  1  0  0  0
 13 14  1  0  0  0
 13 15  2  0  0  0
  3  4  2  0  0  0
  4  5  1  0  0  0
  5  6  2  0  0  0
  6 20  1  0  0  0
 20 22  1  0  0  0
 22 23  1  0  0  0
 23 24  2  0  0  0
 24 25  1  0  0  0
 25 26  2  0  0  0
 26 29  1  0  0  0
 29 30  1  0  0  0
 26 27  1  0  0  0
 27 28  2  0  0  0
  6  7  1  0  0  0
  7  8  2  0  0  0
  8 17  1  0  0  0
 17 18  1  0  0  0
 17 19  1  0  0  0
  5  9  1  0  0  0
  9 10  2  0  0  0
 10 31  1  0  0  0
 31 33  1  0  0  0
 33 34  1  0  0  0
 34 35  1  0  0  0
 10 11  1  0  0  0
 11 12  2  0  0  0
  8  1  1  0  0  0
 35 33  1  0  0  0
 12  4  1  0  0  0
 28 23  1  0  0  0
 14 16  1  0  0  0
 20 21  1  0  0  0
 31 32  1  0  0  0
M  END
> <minimizedAffinity>
-7.69912

> <CNNscore>
0.3938314915

> <CNNaffinity>
6.8114099503

> <CNN_VS>
2.6825478077

> <CNNaffinity_variance>
0.0858762935

$$$$
[H]OC(=O)C1=c2c([H])nc(N([H])C3([H])C([H])([H])C3([H])[H])nc2=C(N([H])C([H])([H])c2c([H])c([H])c(OC([H])([H])[H])c([H])c2[H])N=C(C([H])(F)F)N1C([H])([H])[H]


 35 38  0  0  0  0  0  0  0  0999 V2000
   57.8234   -4.6061  -10.6117 N   0  0  0  0  0  0  0  0  0  0  0  0
   58.8282   -4.0316  -11.4454 C   0  0  0  0  0  0  0  0  0  0  0  0
   56.4653   -4.2911  -10.9987 C   0  0  0  0  0  0  0  0  0  0  0  0
   55.4484   -4.1597  -10.1621 C   0  0  0  0  0  0  0  0  0  0  0  0
   55.4553   -4.3188   -8.7668 C   0  0  0  0  0  0  0  0  0  0  0  0
   56.3682   -4.8553   -7.9704 C   0  0  0  0  0  0  0  0  0  0  0  0
   57.6062   -5.4614   -8.3686 N   0  0  0  0  0  0  0  0  0  0  0  0
   58.2611   -5.3743   -9.5020 C   0  0  0  0  0  0  0  0  0  0  0  0
   54.4005   -3.9803   -8.0199 N   0  0  0  0  0  0  0  0  0  0  0  0
   53.2856   -3.4753   -8.5684 C   0  0  0  0  0  0  0  0  0  0  0  0
   53.2825   -3.3273   -9.8893 N   0  0  0  0  0  0  0  0  0  0  0  0
   54.3131   -3.6443  -10.7184 C   0  0  0  0  0  0  0  0  0  0  0  0
   56.1747   -4.3230  -12.4018 C   0  0  0  0  0  0  0  0  0  0  0  0
   56.0268   -3.1004  -13.1344 O   0  0  0  0  0  0  0  0  0  0  0  0
   56.0399   -5.3452  -13.0958 O   0  0  0  0  0  0  0  0  0  0  0  0
   55.1601   -2.9130  -13.6006 H   0  0  0  0  0  0  0  0  0  0  0  0
   59.5360   -6.1028   -9.6347 C   0  0  0  0  0  0  0  0  0  0  0  0
   60.4790   -5.7425   -8.6747 F   0  0  0  0  0  0  0  0  0  0  0  0
   59.4499   -7.4314   -9.8750 F   0  0  0  0  0  0  0  0  0  0  0  0
   56.0428   -4.8439   -6.5986 N   0  0  0  0  0  0  0  0  0  0  0  0
   55.9125   -3.8833   -6.1622 H   0  0  0  0  0  0  0  0  0  0  0  0
   55.8779   -6.0020   -5.7877 C   0  0  0  0  0  0  0  0  0  0  0  0
   56.3446   -5.8727   -4.3997 C   0  0  0  0  0  0  0  0  0  0  0  0
   55.9759   -4.9049   -3.5021 C   0  0  0  0  0  0  0  0  0  0  0  0
   56.4722   -4.8671   -2.1944 C   0  0  0  0  0  0  0  0  0  0  0  0
   57.3662   -5.8263   -1.7673 C   0  0  0  0  0  0  0  0  0  0  0  0
   57.7393   -6.7951   -2.6565 C   0  0  0  0  0  0  0  0  0  0  0  0
   57.2491   -6.8300   -3.9431 C   0  0  0  0  0  0  0  0  0  0  0  0
   57.8885   -5.8314   -0.4754 O   0  0  0  0  0  0  0  0  0  0  0  0
   58.9424   -4.9088   -0.1920 C   0  0  0  0  0  0  0  0  0  0  0  0
   52.1526   -3.1130   -7.7714 N   0  0  0  0  0  0  0  0  0  0  0  0
   51.9744   -2.1218   -7.5580 H   0  0  0  0  0  0  0  0  0  0  0  0
   51.2903   -4.1494   -7.2882 C   0  0  0  0  0  0  0  0  0  0  0  0
   51.4003   -4.6998   -5.9296 C   0  0  0  0  0  0  0  0  0  0  0  0
   50.2809   -3.7583   -6.1969 C   0  0  0  0  0  0  0  0  0  0  0  0
  1  2  1  0  0  0
  1  3  1  0  0  0
  3 13  1  0  0  0
 13 14  1  0  0  0
 13 15  2  0  0  0
  3  4  2  0  0  0
  4  5  1  0  0  0
  5  6  2  0  0  0
  6 20  1  0  0  0
 20 22  1  0  0  0
 22 23  1  0  0  0
 23 24  2  0  0  0
 24 25  1  0  0  0
 25 26  2  0  0  0
 26 29  1  0  0  0
 29 30  1  0  0  0
 26 27  1  0  0  0
 27 28  2  0  0  0
  6  7  1  0  0  0
  7  8  2  0  0  0
  8 17  1  0  0  0
 17 18  1  0  0  0
 17 19  1  0  0  0
  5  9  1  0  0  0
  9 10  2  0  0  0
 10 31  1  0  0  0
 31 33  1  0  0  0
 33 34  1  0  0  0
 34 35  1  0  0  0
 10 11  1  0  0  0
 11 12  2  0  0  0
  8  1  1  0  0  0
 35 33  1  0  0  0
 12  4  1  0  0  0
 28 23  1  0  0  0
 14 16  1  0  0  0
 20 21  1  0  0  0
 31 32  1  0  0  0
M  END
> <minimizedAffinity>
-7.14797

> <CNNscore>
0.3720415533

> <CNNaffinity>
6.7418050766

> <CNN_VS>
2.5082316399

> <CNNaffinity_variance>
0.1739057153

$$$$
[H]OC(=O)C1=c2c([H])nc(N([H])C3([H])C([H])([H])C3([H])[H])nc2=C(N([H])C([H])([H])c2c([H])c([H])c(OC([H])([H])[H])c([H])c2[H])N=C(C([H])(F)F)N1C([H])([H])[H]


 35 38  0  0  0  0  0  0  0  0999 V2000
   55.4988   -5.9474   -7.5668 N   0  0  0  0  0  0  0  0  0  0  0  0
   54.4909   -6.9134   -7.2736 C   0  0  0  0  0  0  0  0  0  0  0  0
   55.1658   -5.0339   -8.6382 C   0  0  0  0  0  0  0  0  0  0  0  0
   56.0377   -4.4962   -9.4761 C   0  0  0  0  0  0  0  0  0  0  0  0
   57.4318   -4.6643   -9.4932 C   0  0  0  0  0  0  0  0  0  0  0  0
   58.2438   -5.1778   -8.5808 C   0  0  0  0  0  0  0  0  0  0  0  0
   57.8769   -5.6725   -7.2851 N   0  0  0  0  0  0  0  0  0  0  0  0
   56.7004   -6.0138   -6.8153 C   0  0  0  0  0  0  0  0  0  0  0  0
   58.1780   -4.2090  -10.5036 N   0  0  0  0  0  0  0  0  0  0  0  0
   57.6303   -3.5682  -11.5469 C   0  0  0  0  0  0  0  0  0  0  0  0
   56.3108   -3.4101  -11.5265 N   0  0  0  0  0  0  0  0  0  0  0  0
   55.4820   -3.8449  -10.5396 C   0  0  0  0  0  0  0  0  0  0  0  0
   53.8243   -4.5298   -8.6572 C   0  0  0  0  0  0  0  0  0  0  0  0
   53.4387   -3.4753   -7.7670 O   0  0  0  0  0  0  0  0  0  0  0  0
   52.9105   -4.9161   -9.4058 O   0  0  0  0  0  0  0  0  0  0  0  0
   52.6980   -3.6363   -7.1121 H   0  0  0  0  0  0  0  0  0  0  0  0
   56.6142   -6.5107   -5.4299 C   0  0  0  0  0  0  0  0  0  0  0  0
   57.8569   -6.7931   -4.8673 F   0  0  0  0  0  0  0  0  0  0  0  0
   55.7534   -5.8653   -4.6096 F   0  0  0  0  0  0  0  0  0  0  0  0
   59.6076   -5.1935   -8.9384 N   0  0  0  0  0  0  0  0  0  0  0  0
   60.2636   -4.6741   -8.2826 H   0  0  0  0  0  0  0  0  0  0  0  0
   60.1451   -5.8450  -10.0841 C   0  0  0  0  0  0  0  0  0  0  0  0
   61.2400   -6.7891   -9.8180 C   0  0  0  0  0  0  0  0  0  0  0  0
   62.5684   -6.5966  -10.0950 C   0  0  0  0  0  0  0  0  0  0  0  0
   63.5426   -7.5563   -9.7986 C   0  0  0  0  0  0  0  0  0  0  0  0
   63.1804   -8.7478   -9.2065 C   0  0  0  0  0  0  0  0  0  0  0  0
   61.8574   -8.9479   -8.9271 C   0  0  0  0  0  0  0  0  0  0  0  0
   60.9004   -8.0015   -9.2197 C   0  0  0  0  0  0  0  0  0  0  0  0
   64.1131   -9.7342   -8.8921 O   0  0  0  0  0  0  0  0  0  0  0  0
   64.9281  -10.2274   -9.9574 C   0  0  0  0  0  0  0  0  0  0  0  0
   58.4270   -3.0774  -12.6307 N   0  0  0  0  0  0  0  0  0  0  0  0
   58.4998   -2.0633  -12.7924 H   0  0  0  0  0  0  0  0  0  0  0  0
   59.1069   -4.0196  -13.4679 C   0  0  0  0  0  0  0  0  0  0  0  0
   58.8286   -4.1441  -14.9059 C   0  0  0  0  0  0  0  0  0  0  0  0
   60.0797   -3.4449  -14.5100 C   0  0  0  0  0  0  0  0  0  0  0  0
  1  2  1  0  0  0
  1  3  1  0  0  0
  3 13  1  0  0  0
 13 14  1  0  0  0
 13 15  2  0  0  0
  3  4  2  0  0  0
  4  5  1  0  0  0
  5  6  2  0  0  0
  6 20  1  0  0  0
 20 22  1  0  0  0
 22 23  1  0  0  0
 23 24  2  0  0  0
 24 25  1  0  0  0
 25 26  2  0  0  0
 26 29  1  0  0  0
 29 30  1  0  0  0
 26 27  1  0  0  0
 27 28  2  0  0  0
  6  7  1  0  0  0
  7  8  2  0  0  0
  8 17  1  0  0  0
 17 18  1  0  0  0
 17 19  1  0  0  0
  5  9  1  0  0  0
  9 10  2  0  0  0
 10 31  1  0  0  0
 31 33  1  0  0  0
 33 34  1  0  0  0
 34 35  1  0  0  0
 10 11  1  0  0  0
 11 12  2  0  0  0
  8  1  1  0  0  0
 35 33  1  0  0  0
 12  4  1  0  0  0
 28 23  1  0  0  0
 14 16  1  0  0  0
 20 21  1  0  0  0
 31 32  1  0  0  0
M  END
> <minimizedAffinity>
-1.92566

> <CNNscore>
0.3494311869

> <CNNaffinity>
5.4407391548

> <CNN_VS>
1.9011639357

> <CNNaffinity_variance>
0.0687489286

$$$$
[H]OC(=O)C1=c2c([H])nc(N([H])C3([H])C([H])([H])C3([H])[H])nc2=C(N([H])C([H])([H])c2c([H])c([H])c(OC([H])([H])[H])c([H])c2[H])N=C(C([H])(F)F)N1C([H])([H])[H]


 35 38  0  0  0  0  0  0  0  0999 V2000
   57.3702   -4.8805  -10.3611 N   0  0  0  0  0  0  0  0  0  0  0  0
   57.8586   -5.6736  -11.4414 C   0  0  0  0  0  0  0  0  0  0  0  0
   57.7380   -5.3591   -9.0463 C   0  0  0  0  0  0  0  0  0  0  0  0
   56.9999   -5.2263   -7.9559 C   0  0  0  0  0  0  0  0  0  0  0  0
   55.7543   -4.5897   -7.8316 C   0  0  0  0  0  0  0  0  0  0  0  0
   55.1212   -3.7766   -8.6642 C   0  0  0  0  0  0  0  0  0  0  0  0
   55.5980   -3.3038   -9.9321 N   0  0  0  0  0  0  0  0  0  0  0  0
   56.5674   -3.7579  -10.6906 C   0  0  0  0  0  0  0  0  0  0  0  0
   55.0306   -4.6835   -6.7125 N   0  0  0  0  0  0  0  0  0  0  0  0
   55.4612   -5.3878   -5.6555 C   0  0  0  0  0  0  0  0  0  0  0  0
   56.6410   -5.9879   -5.7766 N   0  0  0  0  0  0  0  0  0  0  0  0
   57.4359   -5.9439   -6.8793 C   0  0  0  0  0  0  0  0  0  0  0  0
   59.0824   -5.8299   -8.8883 C   0  0  0  0  0  0  0  0  0  0  0  0
   59.4949   -7.0528   -9.5108 O   0  0  0  0  0  0  0  0  0  0  0  0
   59.9835   -5.2623   -8.2475 O   0  0  0  0  0  0  0  0  0  0  0  0
   59.8351   -7.8010   -8.9380 H   0  0  0  0  0  0  0  0  0  0  0  0
   56.8364   -3.0765  -11.9701 C   0  0  0  0  0  0  0  0  0  0  0  0
   58.1937   -2.9807  -12.2687 F   0  0  0  0  0  0  0  0  0  0  0  0
   56.0484   -3.4207  -13.0147 F   0  0  0  0  0  0  0  0  0  0  0  0
   53.8665   -3.3197   -8.2117 N   0  0  0  0  0  0  0  0  0  0  0  0
   53.8756   -2.4065   -7.6676 H   0  0  0  0  0  0  0  0  0  0  0  0
   52.6261   -3.9813   -8.4351 C   0  0  0  0  0  0  0  0  0  0  0  0
   51.5899   -3.7397   -7.4208 C   0  0  0  0  0  0  0  0  0  0  0  0
   50.6878   -2.7081   -7.4061 C   0  0  0  0  0  0  0  0  0  0  0  0
   49.7305   -2.5638   -6.3959 C   0  0  0  0  0  0  0  0  0  0  0  0
   49.6706   -3.4785   -5.3658 C   0  0  0  0  0  0  0  0  0  0  0  0
   50.5669   -4.5104   -5.3727 C   0  0  0  0  0  0  0  0  0  0  0  0
   51.5082   -4.6502   -6.3685 C   0  0  0  0  0  0  0  0  0  0  0  0
   48.7359   -3.3780   -4.3371 O   0  0  0  0  0  0  0  0  0  0  0  0
   47.5758   -2.5802   -4.5827 C   0  0  0  0  0  0  0  0  0  0  0  0
   54.6890   -5.4892   -4.4539 N   0  0  0  0  0  0  0  0  0  0  0  0
   54.6929   -4.7131   -3.7776 H   0  0  0  0  0  0  0  0  0  0  0  0
   53.9255   -6.6787   -4.2239 C   0  0  0  0  0  0  0  0  0  0  0  0
   54.1712   -7.5665   -3.0783 C   0  0  0  0  0  0  0  0  0  0  0  0
   52.9842   -6.6738   -3.0087 C   0  0  0  0  0  0  0  0  0  0  0  0
  1  2  1  0  0  0
  1  3  1  0  0  0
  3 13  1  0  0  0
 13 14  1  0  0  0
 13 15  2  0  0  0
  3  4  2  0  0  0
  4  5  1  0  0  0
  5  6  2  0  0  0
  6 20  1  0  0  0
 20 22  1  0  0  0
 22 23  1  0  0  0
 23 24  2  0  0  0
 24 25  1  0  0  0
 25 26  2  0  0  0
 26 29  1  0  0  0
 29 30  1  0  0  0
 26 27  1  0  0  0
 27 28  2  0  0  0
  6  7  1  0  0  0
  7  8  2  0  0  0
  8 17  1  0  0  0
 17 18  1  0  0  0
 17 19  1  0  0  0
  5  9  1  0  0  0
  9 10  2  0  0  0
 10 31  1  0  0  0
 31 33  1  0  0  0
 33 34  1  0  0  0
 34 35  1  0  0  0
 10 11  1  0  0  0
 11 12  2  0  0  0
  8  1  1  0  0  0
 35 33  1  0  0  0
 12  4  1  0  0  0
 28 23  1  0  0  0
 14 16  1  0  0  0
 20 21  1  0  0  0
 31 32  1  0  0  0
M  END
> <minimizedAffinity>
-7.47572

> <CNNscore>
0.3486570716

> <CNNaffinity>
6.9627089500

> <CNN_VS>
2.4275977612

> <CNNaffinity_variance>
0.2605087757

$$$$
[H]OC(=O)C1=c2c([H])nc(N([H])C3([H])C([H])([H])C3([H])[H])nc2=C(N([H])C([H])([H])c2c([H])c([H])c(OC([H])([H])[H])c([H])c2[H])N=C(C([H])(F)F)N1C([H])([H])[H]


 35 38  0  0  0  0  0  0  0  0999 V2000
   55.2598   -6.4039   -3.6139 N   0  0  0  0  0  0  0  0  0  0  0  0
   55.5906   -6.2082   -2.2402 C   0  0  0  0  0  0  0  0  0  0  0  0
   56.3819   -6.3180   -4.5231 C   0  0  0  0  0  0  0  0  0  0  0  0
   56.3183   -5.8730   -5.7679 C   0  0  0  0  0  0  0  0  0  0  0  0
   55.1841   -5.4283   -6.4664 C   0  0  0  0  0  0  0  0  0  0  0  0
   53.8969   -5.5542   -6.1784 C   0  0  0  0  0  0  0  0  0  0  0  0
   53.3318   -6.2384   -5.0511 N   0  0  0  0  0  0  0  0  0  0  0  0
   53.8933   -6.6202   -3.9285 C   0  0  0  0  0  0  0  0  0  0  0  0
   55.2863   -4.8346   -7.6589 N   0  0  0  0  0  0  0  0  0  0  0  0
   56.4766   -4.6382   -8.2450 C   0  0  0  0  0  0  0  0  0  0  0  0
   57.5476   -5.0614   -7.5813 N   0  0  0  0  0  0  0  0  0  0  0  0
   57.5291   -5.6709   -6.3655 C   0  0  0  0  0  0  0  0  0  0  0  0
   57.5988   -6.9465   -4.1010 C   0  0  0  0  0  0  0  0  0  0  0  0
   57.8642   -8.3102   -4.4519 O   0  0  0  0  0  0  0  0  0  0  0  0
   58.5043   -6.4117   -3.4386 O   0  0  0  0  0  0  0  0  0  0  0  0
   58.0033   -8.9832   -3.7230 H   0  0  0  0  0  0  0  0  0  0  0  0
   53.0593   -7.3023   -2.9221 C   0  0  0  0  0  0  0  0  0  0  0  0
   51.6933   -7.1102   -3.1164 F   0  0  0  0  0  0  0  0  0  0  0  0
   53.4144   -8.5678   -2.6013 F   0  0  0  0  0  0  0  0  0  0  0  0
   53.0174   -4.9738   -7.1151 N   0  0  0  0  0  0  0  0  0  0  0  0
   53.4363   -4.2211   -7.7380 H   0  0  0  0  0  0  0  0  0  0  0  0
   51.6476   -5.3251   -7.2774 C   0  0  0  0  0  0  0  0  0  0  0  0
   50.6852   -4.4436   -6.6009 C   0  0  0  0  0  0  0  0  0  0  0  0
   50.0742   -3.3398   -7.1361 C   0  0  0  0  0  0  0  0  0  0  0  0
   49.1635   -2.5623   -6.4122 C   0  0  0  0  0  0  0  0  0  0  0  0
   48.8517   -2.8963   -5.1112 C   0  0  0  0  0  0  0  0  0  0  0  0
   49.4569   -3.9958   -4.5697 C   0  0  0  0  0  0  0  0  0  0  0  0
   50.3529   -4.7595   -5.2845 C   0  0  0  0  0  0  0  0  0  0  0  0
   47.9514   -2.1539   -4.3496 O   0  0  0  0  0  0  0  0  0  0  0  0
   46.7005   -2.7679   -4.0322 C   0  0  0  0  0  0  0  0  0  0  0  0
   56.5899   -4.0038   -9.5236 N   0  0  0  0  0  0  0  0  0  0  0  0
   56.5312   -2.9783   -9.5918 H   0  0  0  0  0  0  0  0  0  0  0  0
   56.7836   -4.8212  -10.6835 C   0  0  0  0  0  0  0  0  0  0  0  0
   56.3991   -4.3825  -12.0328 C   0  0  0  0  0  0  0  0  0  0  0  0
   57.8460   -4.3537  -11.6912 C   0  0  0  0  0  0  0  0  0  0  0  0
  1  2  1  0  0  0
  1  3  1  0  0  0
  3 13  1  0  0  0
 13 14  1  0  0  0
 13 15  2  0  0  0
  3  4  2  0  0  0
  4  5  1  0  0  0
  5  6  2  0  0  0
  6 20  1  0  0  0
 20 22  1  0  0  0
 22 23  1  0  0  0
 23 24  2  0  0  0
 24 25  1  0  0  0
 25 26  2  0  0  0
 26 29  1  0  0  0
 29 30  1  0  0  0
 26 27  1  0  0  0
 27 28  2  0  0  0
  6  7  1  0  0  0
  7  8  2  0  0  0
  8 17  1  0  0  0
 17 18  1  0  0  0
 17 19  1  0  0  0
  5  9  1  0  0  0
  9 10  2  0  0  0
 10 31  1  0  0  0
 31 33  1  0  0  0
 33 34  1  0  0  0
 34 35  1  0  0  0
 10 11  1  0  0  0
 11 12  2  0  0  0
  8  1  1  0  0  0
 35 33  1  0  0  0
 12  4  1  0  0  0
 28 23  1  0  0  0
 14 16  1  0  0  0
 20 21  1  0  0  0
 31 32  1  0  0  0
M  END
> <minimizedAffinity>
-7.42677

> <CNNscore>
0.2620030940

> <CNNaffinity>
6.7676076889

> <CNN_VS>
1.7731341124

> <CNNaffinity_variance>
0.1607863903

$$$$
[H]OC(=O)C1=c2c([H])nc(N([H])C3([H])C([H])([H])C3([H])[H])nc2=C(N([H])C([H])([H])c2c([H])c([H])c(OC([H])([H])[H])c([H])c2[H])N=C(C([H])(F)F)N1C([H])([H])[H]


 35 38  0  0  0  0  0  0  0  0999 V2000
   52.6724   -5.4460   -5.2629 N   0  0  0  0  0  0  0  0  0  0  0  0
   52.0318   -5.2053   -4.0113 C   0  0  0  0  0  0  0  0  0  0  0  0
   53.9685   -6.0813   -5.1653 C   0  0  0  0  0  0  0  0  0  0  0  0
   54.9755   -5.8845   -6.0012 C   0  0  0  0  0  0  0  0  0  0  0  0
   54.9997   -5.0672   -7.1429 C   0  0  0  0  0  0  0  0  0  0  0  0
   54.0070   -4.4917   -7.8053 C   0  0  0  0  0  0  0  0  0  0  0  0
   52.6054   -4.6034   -7.5203 N   0  0  0  0  0  0  0  0  0  0  0  0
   51.9964   -5.0123   -6.4326 C   0  0  0  0  0  0  0  0  0  0  0  0
   56.1365   -4.8161   -7.7983 N   0  0  0  0  0  0  0  0  0  0  0  0
   57.3066   -5.3350   -7.3976 C   0  0  0  0  0  0  0  0  0  0  0  0
   57.2794   -6.1089   -6.3174 N   0  0  0  0  0  0  0  0  0  0  0  0
   56.1678   -6.4107   -5.5941 C   0  0  0  0  0  0  0  0  0  0  0  0
   54.0916   -7.1438   -4.2114 C   0  0  0  0  0  0  0  0  0  0  0  0
   54.6397   -8.4071   -4.6074 O   0  0  0  0  0  0  0  0  0  0  0  0
   53.7699   -7.0883   -3.0121 O   0  0  0  0  0  0  0  0  0  0  0  0
   54.0807   -9.2329   -4.5115 H   0  0  0  0  0  0  0  0  0  0  0  0
   50.5222   -5.0109   -6.4098 C   0  0  0  0  0  0  0  0  0  0  0  0
   49.9718   -3.7317   -6.4475 F   0  0  0  0  0  0  0  0  0  0  0  0
   49.9053   -5.9177   -7.2021 F   0  0  0  0  0  0  0  0  0  0  0  0
   54.4011   -3.7248   -8.9209 N   0  0  0  0  0  0  0  0  0  0  0  0
   54.9016   -2.8129   -8.7018 H   0  0  0  0  0  0  0  0  0  0  0  0
   54.1820   -4.0862  -10.2802 C   0  0  0  0  0  0  0  0  0  0  0  0
   55.3840   -4.1223  -11.1256 C   0  0  0  0  0  0  0  0  0  0  0  0
   55.4460   -4.5084  -12.4391 C   0  0  0  0  0  0  0  0  0  0  0  0
   56.6417   -4.5041  -13.1660 C   0  0  0  0  0  0  0  0  0  0  0  0
   57.8147   -4.1014  -12.5632 C   0  0  0  0  0  0  0  0  0  0  0  0
   57.7616   -3.7149  -11.2532 C   0  0  0  0  0  0  0  0  0  0  0  0
   56.5833   -3.7200  -10.5400 C   0  0  0  0  0  0  0  0  0  0  0  0
   59.0300   -4.0797  -13.2446 O   0  0  0  0  0  0  0  0  0  0  0  0
   59.0691   -3.3811  -14.4908 C   0  0  0  0  0  0  0  0  0  0  0  0
   58.5266   -5.0695   -8.0985 N   0  0  0  0  0  0  0  0  0  0  0  0
   58.8367   -4.0972   -8.2334 H   0  0  0  0  0  0  0  0  0  0  0  0
   59.2891   -6.1744   -8.5974 C   0  0  0  0  0  0  0  0  0  0  0  0
   59.9367   -6.1563   -9.9169 C   0  0  0  0  0  0  0  0  0  0  0  0
   60.8067   -5.9671   -8.7261 C   0  0  0  0  0  0  0  0  0  0  0  0
  1  2  1  0  0  0
  1  3  1  0  0  0
  3 13  1  0  0  0
 13 14  1  0  0  0
 13 15  2  0  0  0
  3  4  2  0  0  0
  4  5  1  0  0  0
  5  6  2  0  0  0
  6 20  1  0  0  0
 20 22  1  0  0  0
 22 23  1  0  0  0
 23 24  2  0  0  0
 24 25  1  0  0  0
 25 26  2  0  0  0
 26 29  1  0  0  0
 29 30  1  0  0  0
 26 27  1  0  0  0
 27 28  2  0  0  0
  6  7  1  0  0  0
  7  8  2  0  0  0
  8 17  1  0  0  0
 17 18  1  0  0  0
 17 19  1  0  0  0
  5  9  1  0  0  0
  9 10  2  0  0  0
 10 31  1  0  0  0
 31 33  1  0  0  0
 33 34  1  0  0  0
 34 35  1  0  0  0
 10 11  1  0  0  0
 11 12  2  0  0  0
  8  1  1  0  0  0
 35 33  1  0  0  0
 12  4  1  0  0  0
 28 23  1  0  0  0
 14 16  1  0  0  0
 20 21  1  0  0  0
 31 32  1  0  0  0
M  END
> <minimizedAffinity>
-6.13794

> <CNNscore>
0.2368009537

> <CNNaffinity>
6.4601531029

> <CNN_VS>
1.5297703743

> <CNNaffinity_variance>
0.0561954677

$$$$
[H]OC(=O)C1=c2c([H])nc(N([H])C3([H])C([H])([H])C3([H])[H])nc2=C(N([H])C([H])([H])c2c([H])c([H])c(OC([H])([H])[H])c([H])c2[H])N=C(C([H])(F)F)N1C([H])([H])[H]


 35 38  0  0  0  0  0  0  0  0999 V2000
   51.0344   -5.1276   -5.9799 N   0  0  0  0  0  0  0  0  0  0  0  0
   49.7089   -5.6538   -5.9519 C   0  0  0  0  0  0  0  0  0  0  0  0
   51.2550   -4.0997   -6.9740 C   0  0  0  0  0  0  0  0  0  0  0  0
   52.3978   -3.8882   -7.6070 C   0  0  0  0  0  0  0  0  0  0  0  0
   53.6136   -4.5709   -7.4402 C   0  0  0  0  0  0  0  0  0  0  0  0
   54.0051   -5.4022   -6.4857 C   0  0  0  0  0  0  0  0  0  0  0  0
   53.2574   -5.7900   -5.3242 N   0  0  0  0  0  0  0  0  0  0  0  0
   51.9738   -5.6847   -5.0742 C   0  0  0  0  0  0  0  0  0  0  0  0
   54.6423   -4.3786   -8.2706 N   0  0  0  0  0  0  0  0  0  0  0  0
   54.5622   -3.5230   -9.3003 C   0  0  0  0  0  0  0  0  0  0  0  0
   53.4103   -2.8780   -9.4542 N   0  0  0  0  0  0  0  0  0  0  0  0
   52.3177   -3.0187   -8.6565 C   0  0  0  0  0  0  0  0  0  0  0  0
   50.2162   -3.1246   -7.1293 C   0  0  0  0  0  0  0  0  0  0  0  0
   49.2546   -3.2586   -8.1831 O   0  0  0  0  0  0  0  0  0  0  0  0
   50.0377   -2.1278   -6.4086 O   0  0  0  0  0  0  0  0  0  0  0  0
   49.1744   -2.5297   -8.8657 H   0  0  0  0  0  0  0  0  0  0  0  0
   51.4658   -6.1857   -3.7840 C   0  0  0  0  0  0  0  0  0  0  0  0
   52.3491   -7.0510   -3.1424 F   0  0  0  0  0  0  0  0  0  0  0  0
   50.8728   -5.2777   -2.9751 F   0  0  0  0  0  0  0  0  0  0  0  0
   55.3096   -5.9143   -6.6399 N   0  0  0  0  0  0  0  0  0  0  0  0
   55.4761   -6.5015   -7.5103 H   0  0  0  0  0  0  0  0  0  0  0  0
   56.3858   -5.6970   -5.7339 C   0  0  0  0  0  0  0  0  0  0  0  0
   56.0973   -6.0039   -4.3255 C   0  0  0  0  0  0  0  0  0  0  0  0
   55.9166   -5.0974   -3.3137 C   0  0  0  0  0  0  0  0  0  0  0  0
   55.6393   -5.4872   -1.9987 C   0  0  0  0  0  0  0  0  0  0  0  0
   55.5389   -6.8255   -1.6819 C   0  0  0  0  0  0  0  0  0  0  0  0
   55.7181   -7.7363   -2.6853 C   0  0  0  0  0  0  0  0  0  0  0  0
   55.9908   -7.3499   -3.9789 C   0  0  0  0  0  0  0  0  0  0  0  0
   55.2646   -7.2634   -0.3878 O   0  0  0  0  0  0  0  0  0  0  0  0
   54.0964   -8.0655   -0.2022 C   0  0  0  0  0  0  0  0  0  0  0  0
   55.6632   -3.3131  -10.1914 N   0  0  0  0  0  0  0  0  0  0  0  0
   56.0420   -2.3646  -10.3203 H   0  0  0  0  0  0  0  0  0  0  0  0
   56.2122   -4.4391  -10.8855 C   0  0  0  0  0  0  0  0  0  0  0  0
   57.2592   -4.3034  -11.9083 C   0  0  0  0  0  0  0  0  0  0  0  0
   57.6719   -4.8030  -10.5701 C   0  0  0  0  0  0  0  0  0  0  0  0
  1  2  1  0  0  0
  1  3  1  0  0  0
  3 13  1  0  0  0
 13 14  1  0  0  0
 13 15  2  0  0  0
  3  4  2  0  0  0
  4  5  1  0  0  0
  5  6  2  0  0  0
  6 20  1  0  0  0
 20 22  1  0  0  0
 22 23  1  0  0  0
 23 24  2  0  0  0
 24 25  1  0  0  0
 25 26  2  0  0  0
 26 29  1  0  0  0
 29 30  1  0  0  0
 26 27  1  0  0  0
 27 28  2  0  0  0
  6  7  1  0  0  0
  7  8  2  0  0  0
  8 17  1  0  0  0
 17 18  1  0  0  0
 17 19  1  0  0  0
  5  9  1  0  0  0
  9 10  2  0  0  0
 10 31  1  0  0  0
 31 33  1  0  0  0
 33 34  1  0  0  0
 34 35  1  0  0  0
 10 11  1  0  0  0
 11 12  2  0  0  0
  8  1  1  0  0  0
 35 33  1  0  0  0
 12  4  1  0  0  0
 28 23  1  0  0  0
 14 16  1  0  0  0
 20 21  1  0  0  0
 31 32  1  0  0  0
M  END
> <minimizedAffinity>
-8.50294

> <CNNscore>
0.2337468266

> <CNNaffinity>
6.9310045242

> <CNN_VS>
1.6201002598

> <CNNaffinity_variance>
0.1491116285

$$$$
[H]c1c([H])c([H])c(C(=O)N([H])[C@@]2([H])C(=O)N([H])[C@@]([H])(C([H])(C([H])([H])[H])C([H])([H])[H])N([H])C(=O)[C@@]([H])(C(=O)N([H])C([H])([H])C([H])([H])N([H])[H])C([H])([H])c3c([H])c([H])c(F)c([H])c32)c([H])c1[H]


 41 43  0  0  0  0  0  0  0  0999 V2000
   53.9652   -4.0386   -8.0498 C   0  0  0  0  0  0  0  0  0  0  0  0
   54.9866   -3.6729   -7.0931 N   0  0  0  0  0  0  0  0  0  0  0  0
   56.3446   -4.0887   -7.1629 C   0  0  0  0  0  0  0  0  0  0  0  0
   57.2828   -3.3134   -6.7777 O   0  0  0  0  0  0  0  0  0  0  0  0
   56.7624   -5.4174   -7.6729 C   0  0  0  0  0  0  0  0  0  0  0  0
   53.9638   -3.2013   -9.2229 N   0  0  0  0  0  0  0  0  0  0  0  0
   54.3703   -3.5467  -10.5155 C   0  0  0  0  0  0  0  0  0  0  0  0
   53.6363   -3.1625  -11.4931 O   0  0  0  0  0  0  0  0  0  0  0  0
   55.6127   -4.3389  -10.8315 C   0  0  0  0  0  0  0  0  0  0  0  0
   56.8347   -3.6657  -10.2758 C   0  0  0  0  0  0  0  0  0  0  0  0
   57.8855   -4.5988   -9.8014 C   0  0  0  0  0  0  0  0  0  0  0  0
   59.0179   -4.6855  -10.6282 C   0  0  0  0  0  0  0  0  0  0  0  0
   60.0956   -5.4945  -10.3495 C   0  0  0  0  0  0  0  0  0  0  0  0
   60.0718   -6.2599   -9.2072 C   0  0  0  0  0  0  0  0  0  0  0  0
   61.1061   -7.0883   -8.8632 F   0  0  0  0  0  0  0  0  0  0  0  0
   58.9655   -6.1761   -8.3984 C   0  0  0  0  0  0  0  0  0  0  0  0
   57.8605   -5.3543   -8.6727 C   0  0  0  0  0  0  0  0  0  0  0  0
   54.7128   -3.0619   -6.2981 H   0  0  0  0  0  0  0  0  0  0  0  0
   53.6097   -2.2064   -9.0750 H   0  0  0  0  0  0  0  0  0  0  0  0
   57.1420   -6.2165   -6.5194 N   0  0  0  0  0  0  0  0  0  0  0  0
   56.2819   -6.4472   -5.4224 C   0  0  0  0  0  0  0  0  0  0  0  0
   55.1090   -5.9555   -5.3927 O   0  0  0  0  0  0  0  0  0  0  0  0
   58.0865   -6.6312   -6.5102 H   0  0  0  0  0  0  0  0  0  0  0  0
   56.6680   -7.2458   -4.2751 C   0  0  0  0  0  0  0  0  0  0  0  0
   58.0104   -7.4629   -3.9589 C   0  0  0  0  0  0  0  0  0  0  0  0
   58.4192   -8.2107   -2.8856 C   0  0  0  0  0  0  0  0  0  0  0  0
   57.4866   -8.7893   -2.0599 C   0  0  0  0  0  0  0  0  0  0  0  0
   56.1695   -8.6008   -2.3353 C   0  0  0  0  0  0  0  0  0  0  0  0
   55.7603   -7.8353   -3.4339 C   0  0  0  0  0  0  0  0  0  0  0  0
   55.6981   -4.5529  -12.2925 C   0  0  0  0  0  0  0  0  0  0  0  0
   55.3576   -5.6611  -12.7761 O   0  0  0  0  0  0  0  0  0  0  0  0
   56.1532   -3.5542  -13.1977 N   0  0  0  0  0  0  0  0  0  0  0  0
   56.4347   -2.6337  -12.7790 H   0  0  0  0  0  0  0  0  0  0  0  0
   56.2454   -3.7313  -14.6064 C   0  0  0  0  0  0  0  0  0  0  0  0
   57.5490   -3.2862  -15.2168 C   0  0  0  0  0  0  0  0  0  0  0  0
   58.5991   -3.6439  -14.2498 N   0  0  0  0  0  0  0  0  0  0  0  0
   58.1827   -3.5252  -13.2952 H   0  0  0  0  0  0  0  0  0  0  0  0
   58.7469   -4.6785  -14.3600 H   0  0  0  0  0  0  0  0  0  0  0  0
   51.9798   -5.3369   -7.2508 C   0  0  0  0  0  0  0  0  0  0  0  0
   52.6289   -3.9857   -7.3258 C   0  0  0  0  0  0  0  0  0  0  0  0
   51.6670   -3.0311   -7.9960 C   0  0  0  0  0  0  0  0  0  0  0  0
 39 40  1  0  0  0
 40 41  1  0  0  0
 40  1  1  0  0  0
  1  2  1  0  0  0
  2  3  1  0  0  0
  3  4  2  0  0  0
  3  5  1  0  0  0
  5 20  1  0  0  0
 20 21  1  0  0  0
 21 22  2  0  0  0
 21 24  1  0  0  0
 24 25  2  0  0  0
 25 26  1  0  0  0
 26 27  2  0  0  0
 27 28  1  0  0  0
 28 29  2  0  0  0
  1  6  1  0  0  0
  6  7  1  0  0  0
  7  8  2  0  0  0
  7  9  1  0  0  0
  9 10  1  0  0  0
 10 11  1  0  0  0
 11 12  2  0  0  0
 12 13  1  0  0  0
 13 14  2  0  0  0
 14 15  1  0  0  0
 14 16  1  0  0  0
 16 17  2  0  0  0
  9 30  1  0  0  0
 30 31  2  0  0  0
 30 32  1  0  0  0
 32 34  1  0  0  0
 34 35  1  0  0  0
 35 36  1  0  0  0
 17  5  1  0  0  0
 29 24  1  0  0  0
 17 11  1  0  0  0
  2 18  1  0  0  0
 20 23  1  0  0  0
  6 19  1  0  0  0
 32 33  1  0  0  0
 36 37  1  0  0  0
 36 38  1  0  0  0
M  END
> <minimizedAffinity>
-3.44906

> <CNNscore>
0.6110008359

> <CNNaffinity>
6.5941758156

> <CNN_VS>
4.0290470123

> <CNNaffinity_variance>
0.2682298720

$$$$
[H]c1c([H])c([H])c(C(=O)N([H])[C@@]2([H])C(=O)N([H])[C@@]([H])(C([H])(C([H])([H])[H])C([H])([H])[H])N([H])C(=O)[C@@]([H])(C(=O)N([H])C([H])([H])C([H])([H])N([H])[H])C([H])([H])c3c([H])c([H])c(F)c([H])c32)c([H])c1[H]


 41 43  0  0  0  0  0  0  0  0999 V2000
   64.8240   -7.0641   -9.3294 C   0  0  0  0  0  0  0  0  0  0  0  0
   65.2688   -8.3120   -8.7486 N   0  0  0  0  0  0  0  0  0  0  0  0
   64.8571   -9.5999   -9.1891 C   0  0  0  0  0  0  0  0  0  0  0  0
   65.6655  -10.5873   -9.1572 O   0  0  0  0  0  0  0  0  0  0  0  0
   63.4955   -9.8858   -9.7033 C   0  0  0  0  0  0  0  0  0  0  0  0
   65.5682   -6.6913  -10.5060 N   0  0  0  0  0  0  0  0  0  0  0  0
   65.1265   -6.7066  -11.8326 C   0  0  0  0  0  0  0  0  0  0  0  0
   65.4295   -5.7053  -12.5726 O   0  0  0  0  0  0  0  0  0  0  0  0
   64.3198   -7.8220  -12.4460 C   0  0  0  0  0  0  0  0  0  0  0  0
   65.0413   -9.1339  -12.3288 C   0  0  0  0  0  0  0  0  0  0  0  0
   64.1540  -10.3044  -12.1226 C   0  0  0  0  0  0  0  0  0  0  0  0
   64.0106  -11.1432  -13.2403 C   0  0  0  0  0  0  0  0  0  0  0  0
   63.2321  -12.2778  -13.2373 C   0  0  0  0  0  0  0  0  0  0  0  0
   62.5571  -12.6154  -12.0876 C   0  0  0  0  0  0  0  0  0  0  0  0
   61.7640  -13.7285  -12.0082 F   0  0  0  0  0  0  0  0  0  0  0  0
   62.6964  -11.7963  -10.9946 C   0  0  0  0  0  0  0  0  0  0  0  0
   63.4878  -10.6364  -10.9863 C   0  0  0  0  0  0  0  0  0  0  0  0
   65.9377   -8.2684   -7.9543 H   0  0  0  0  0  0  0  0  0  0  0  0
   66.5694   -6.3685  -10.3314 H   0  0  0  0  0  0  0  0  0  0  0  0
   62.7902  -10.6128   -8.6605 N   0  0  0  0  0  0  0  0  0  0  0  0
   62.4461  -10.0390   -7.4160 C   0  0  0  0  0  0  0  0  0  0  0  0
   62.7440   -8.8325   -7.1443 O   0  0  0  0  0  0  0  0  0  0  0  0
   62.5325  -11.5941   -8.8471 H   0  0  0  0  0  0  0  0  0  0  0  0
   61.7422  -10.7709   -6.3806 C   0  0  0  0  0  0  0  0  0  0  0  0
   61.3830  -12.1090   -6.5523 C   0  0  0  0  0  0  0  0  0  0  0  0
   60.7173  -12.8374   -5.6012 C   0  0  0  0  0  0  0  0  0  0  0  0
   60.3717  -12.2511   -4.4083 C   0  0  0  0  0  0  0  0  0  0  0  0
   60.7042  -10.9496   -4.2040 C   0  0  0  0  0  0  0  0  0  0  0  0
   61.3843  -10.2126   -5.1810 C   0  0  0  0  0  0  0  0  0  0  0  0
   63.9941   -7.4770  -13.8469 C   0  0  0  0  0  0  0  0  0  0  0  0
   64.6064   -8.0490  -14.7829 O   0  0  0  0  0  0  0  0  0  0  0  0
   63.0075   -6.5149  -14.1999 N   0  0  0  0  0  0  0  0  0  0  0  0
   62.5048   -6.0449  -13.4072 H   0  0  0  0  0  0  0  0  0  0  0  0
   62.6731   -6.1634  -15.5374 C   0  0  0  0  0  0  0  0  0  0  0  0
   62.3801   -4.7014  -15.7538 C   0  0  0  0  0  0  0  0  0  0  0  0
   61.4214   -4.3149  -14.7062 N   0  0  0  0  0  0  0  0  0  0  0  0
   60.8064   -5.1470  -14.5388 H   0  0  0  0  0  0  0  0  0  0  0  0
   61.9877   -4.2085  -13.8275 H   0  0  0  0  0  0  0  0  0  0  0  0
   65.7538   -6.4640   -7.0841 C   0  0  0  0  0  0  0  0  0  0  0  0
   64.9246   -6.0012   -8.2464 C   0  0  0  0  0  0  0  0  0  0  0  0
   63.5620   -5.5983   -7.7297 C   0  0  0  0  0  0  0  0  0  0  0  0
 39 40  1  0  0  0
 40 41  1  0  0  0
 40  1  1  0  0  0
  1  2  1  0  0  0
  2  3  1  0  0  0
  3  4  2  0  0  0
  3  5  1  0  0  0
  5 20  1  0  0  0
 20 21  1  0  0  0
 21 22  2  0  0  0
 21 24  1  0  0  0
 24 25  2  0  0  0
 25 26  1  0  0  0
 26 27  2  0  0  0
 27 28  1  0  0  0
 28 29  2  0  0  0
  1  6  1  0  0  0
  6  7  1  0  0  0
  7  8  2  0  0  0
  7  9  1  0  0  0
  9 10  1  0  0  0
 10 11  1  0  0  0
 11 12  2  0  0  0
 12 13  1  0  0  0
 13 14  2  0  0  0
 14 15  1  0  0  0
 14 16  1  0  0  0
 16 17  2  0  0  0
  9 30  1  0  0  0
 30 31  2  0  0  0
 30 32  1  0  0  0
 32 34  1  0  0  0
 34 35  1  0  0  0
 35 36  1  0  0  0
 17  5  1  0  0  0
 29 24  1  0  0  0
 17 11  1  0  0  0
  2 18  1  0  0  0
 20 23  1  0  0  0
  6 19  1  0  0  0
 32 33  1  0  0  0
 36 37  1  0  0  0
 36 38  1  0  0  0
M  END
> <minimizedAffinity>
-3.45869

> <CNNscore>
0.5533652306

> <CNNaffinity>
5.3462085724

> <CNN_VS>
2.9584059715

> <CNNaffinity_variance>
1.0400844812

$$$$
[H]c1c([H])c([H])c(C(=O)N([H])[C@@]2([H])C(=O)N([H])[C@@]([H])(C([H])(C([H])([H])[H])C([H])([H])[H])N([H])C(=O)[C@@]([H])(C(=O)N([H])C([H])([H])C([H])([H])N([H])[H])C([H])([H])c3c([H])c([H])c(F)c([H])c32)c([H])c1[H]


 41 43  0  0  0  0  0  0  0  0999 V2000
   59.4213   -7.7962  -16.9993 C   0  0  0  0  0  0  0  0  0  0  0  0
   60.1073   -6.5716  -17.3488 N   0  0  0  0  0  0  0  0  0  0  0  0
   61.3083   -6.1163  -16.7386 C   0  0  0  0  0  0  0  0  0  0  0  0
   62.1859   -5.4874  -17.4196 O   0  0  0  0  0  0  0  0  0  0  0  0
   61.6231   -6.3305  -15.3050 C   0  0  0  0  0  0  0  0  0  0  0  0
   59.9702   -8.9578  -17.6525 N   0  0  0  0  0  0  0  0  0  0  0  0
   60.7194   -9.9860  -17.0721 C   0  0  0  0  0  0  0  0  0  0  0  0
   60.4430  -11.1897  -17.4134 O   0  0  0  0  0  0  0  0  0  0  0  0
   61.8280   -9.7695  -16.0745 C   0  0  0  0  0  0  0  0  0  0  0  0
   62.8913   -8.8719  -16.6396 C   0  0  0  0  0  0  0  0  0  0  0  0
   63.5299   -7.9771  -15.6438 C   0  0  0  0  0  0  0  0  0  0  0  0
   64.8389   -8.3341  -15.2801 C   0  0  0  0  0  0  0  0  0  0  0  0
   65.5912   -7.6220  -14.3743 C   0  0  0  0  0  0  0  0  0  0  0  0
   65.0426   -6.5040  -13.7908 C   0  0  0  0  0  0  0  0  0  0  0  0
   65.7291   -5.7451  -12.8813 F   0  0  0  0  0  0  0  0  0  0  0  0
   63.7631   -6.1542  -14.1454 C   0  0  0  0  0  0  0  0  0  0  0  0
   62.9865   -6.8731  -15.0682 C   0  0  0  0  0  0  0  0  0  0  0  0
   59.6975   -5.9811  -18.0995 H   0  0  0  0  0  0  0  0  0  0  0  0
   59.7755   -9.0298  -18.6985 H   0  0  0  0  0  0  0  0  0  0  0  0
   61.4368   -5.0551  -14.6327 N   0  0  0  0  0  0  0  0  0  0  0  0
   62.3743   -4.0002  -14.7032 C   0  0  0  0  0  0  0  0  0  0  0  0
   63.4487   -4.1203  -15.3736 O   0  0  0  0  0  0  0  0  0  0  0  0
   60.5759   -4.9228  -14.0801 H   0  0  0  0  0  0  0  0  0  0  0  0
   62.1812   -2.7306  -14.0295 C   0  0  0  0  0  0  0  0  0  0  0  0
   60.9135   -2.3068  -13.6262 C   0  0  0  0  0  0  0  0  0  0  0  0
   60.6862   -1.1155  -12.9881 C   0  0  0  0  0  0  0  0  0  0  0  0
   61.7365   -0.2732  -12.7168 C   0  0  0  0  0  0  0  0  0  0  0  0
   62.9860   -0.6509  -13.0943 C   0  0  0  0  0  0  0  0  0  0  0  0
   63.2096   -1.8699  -13.7459 C   0  0  0  0  0  0  0  0  0  0  0  0
   62.3620  -11.0802  -15.6446 C   0  0  0  0  0  0  0  0  0  0  0  0
   61.6070  -12.0842  -15.6403 O   0  0  0  0  0  0  0  0  0  0  0  0
   63.7086  -11.2704  -15.2274 N   0  0  0  0  0  0  0  0  0  0  0  0
   64.3273  -10.4223  -15.2357 H   0  0  0  0  0  0  0  0  0  0  0  0
   64.2496  -12.5181  -14.8094 C   0  0  0  0  0  0  0  0  0  0  0  0
   63.2471  -13.4793  -14.2251 C   0  0  0  0  0  0  0  0  0  0  0  0
   63.2699  -13.2627  -12.7697 N   0  0  0  0  0  0  0  0  0  0  0  0
   64.2584  -13.0236  -12.5161 H   0  0  0  0  0  0  0  0  0  0  0  0
   62.7214  -12.3817  -12.6046 H   0  0  0  0  0  0  0  0  0  0  0  0
   57.5538   -6.1583  -17.3088 C   0  0  0  0  0  0  0  0  0  0  0  0
   57.9525   -7.6049  -17.3443 C   0  0  0  0  0  0  0  0  0  0  0  0
   57.0522   -8.3710  -16.4018 C   0  0  0  0  0  0  0  0  0  0  0  0
 39 40  1  0  0  0
 40 41  1  0  0  0
 40  1  1  0  0  0
  1  2  1  0  0  0
  2  3  1  0  0  0
  3  4  2  0  0  0
  3  5  1  0  0  0
  5 20  1  0  0  0
 20 21  1  0  0  0
 21 22  2  0  0  0
 21 24  1  0  0  0
 24 25  2  0  0  0
 25 26  1  0  0  0
 26 27  2  0  0  0
 27 28  1  0  0  0
 28 29  2  0  0  0
  1  6  1  0  0  0
  6  7  1  0  0  0
  7  8  2  0  0  0
  7  9  1  0  0  0
  9 10  1  0  0  0
 10 11  1  0  0  0
 11 12  2  0  0  0
 12 13  1  0  0  0
 13 14  2  0  0  0
 14 15  1  0  0  0
 14 16  1  0  0  0
 16 17  2  0  0  0
  9 30  1  0  0  0
 30 31  2  0  0  0
 30 32  1  0  0  0
 32 34  1  0  0  0
 34 35  1  0  0  0
 35 36  1  0  0  0
 17  5  1  0  0  0
 29 24  1  0  0  0
 17 11  1  0  0  0
  2 18  1  0  0  0
 20 23  1  0  0  0
  6 19  1  0  0  0
 32 33  1  0  0  0
 36 37  1  0  0  0
 36 38  1  0  0  0
M  END
> <minimizedAffinity>
12.44019

> <CNNscore>
0.5272949338

> <CNNaffinity>
4.4188928604

> <CNN_VS>
2.3300597668

> <CNNaffinity_variance>
0.5149863362

$$$$
[H]c1c([H])c([H])c(C(=O)N([H])[C@@]2([H])C(=O)N([H])[C@@]([H])(C([H])(C([H])([H])[H])C([H])([H])[H])N([H])C(=O)[C@@]([H])(C(=O)N([H])C([H])([H])C([H])([H])N([H])[H])C([H])([H])c3c([H])c([H])c(F)c([H])c32)c([H])c1[H]


 41 43  0  0  0  0  0  0  0  0999 V2000
   61.9129   -8.1278   -8.7124 C   0  0  0  0  0  0  0  0  0  0  0  0
   62.6408   -7.5147   -7.6231 N   0  0  0  0  0  0  0  0  0  0  0  0
   63.2348   -8.2283   -6.5461 C   0  0  0  0  0  0  0  0  0  0  0  0
   64.3287   -7.8268   -6.0248 O   0  0  0  0  0  0  0  0  0  0  0  0
   62.6449   -9.4577   -5.9625 C   0  0  0  0  0  0  0  0  0  0  0  0
   62.7717   -8.6188   -9.7605 N   0  0  0  0  0  0  0  0  0  0  0  0
   63.0580   -9.9516  -10.0719 C   0  0  0  0  0  0  0  0  0  0  0  0
   63.0686  -10.2850  -11.3090 O   0  0  0  0  0  0  0  0  0  0  0  0
   63.3545  -11.0175   -9.0487 C   0  0  0  0  0  0  0  0  0  0  0  0
   64.5222  -10.6268   -8.1889 C   0  0  0  0  0  0  0  0  0  0  0  0
   64.4237  -11.0793   -6.7799 C   0  0  0  0  0  0  0  0  0  0  0  0
   65.2718  -12.1463   -6.4396 C   0  0  0  0  0  0  0  0  0  0  0  0
   65.3227  -12.6975   -5.1799 C   0  0  0  0  0  0  0  0  0  0  0  0
   64.5065  -12.1853   -4.1988 C   0  0  0  0  0  0  0  0  0  0  0  0
   64.5012  -12.6810   -2.9226 F   0  0  0  0  0  0  0  0  0  0  0  0
   63.6771  -11.1425   -4.5301 C   0  0  0  0  0  0  0  0  0  0  0  0
   63.6167  -10.5723   -5.8118 C   0  0  0  0  0  0  0  0  0  0  0  0
   62.7401   -6.4801   -7.6251 H   0  0  0  0  0  0  0  0  0  0  0  0
   63.2363   -7.8695  -10.3606 H   0  0  0  0  0  0  0  0  0  0  0  0
   62.0638   -9.0855   -4.6829 N   0  0  0  0  0  0  0  0  0  0  0  0
   60.9875   -8.1786   -4.5576 C   0  0  0  0  0  0  0  0  0  0  0  0
   60.4652   -7.6337   -5.5815 O   0  0  0  0  0  0  0  0  0  0  0  0
   62.4628   -9.5089   -3.8311 H   0  0  0  0  0  0  0  0  0  0  0  0
   60.4133   -7.8123   -3.2772 C   0  0  0  0  0  0  0  0  0  0  0  0
   59.0395   -7.6147   -3.1263 C   0  0  0  0  0  0  0  0  0  0  0  0
   58.4556   -7.2674   -1.9360 C   0  0  0  0  0  0  0  0  0  0  0  0
   59.2328   -7.0976   -0.8165 C   0  0  0  0  0  0  0  0  0  0  0  0
   60.5749   -7.2811   -0.9237 C   0  0  0  0  0  0  0  0  0  0  0  0
   61.1634   -7.6358   -2.1436 C   0  0  0  0  0  0  0  0  0  0  0  0
   63.5636  -12.3105   -9.7358 C   0  0  0  0  0  0  0  0  0  0  0  0
   62.8772  -13.3075   -9.3997 O   0  0  0  0  0  0  0  0  0  0  0  0
   64.5174  -12.4912  -10.7757 N   0  0  0  0  0  0  0  0  0  0  0  0
   65.0838  -11.6495  -11.0452 H   0  0  0  0  0  0  0  0  0  0  0  0
   64.7399  -13.7218  -11.4542 C   0  0  0  0  0  0  0  0  0  0  0  0
   64.3512  -13.7217  -12.9099 C   0  0  0  0  0  0  0  0  0  0  0  0
   64.3142  -12.3104  -13.3255 N   0  0  0  0  0  0  0  0  0  0  0  0
   63.9770  -11.7616  -12.4986 H   0  0  0  0  0  0  0  0  0  0  0  0
   65.3174  -12.0258  -13.4556 H   0  0  0  0  0  0  0  0  0  0  0  0
   61.4064   -6.4653  -10.5139 C   0  0  0  0  0  0  0  0  0  0  0  0
   60.9294   -7.0931   -9.2368 C   0  0  0  0  0  0  0  0  0  0  0  0
   60.6828   -5.9941   -8.2282 C   0  0  0  0  0  0  0  0  0  0  0  0
 39 40  1  0  0  0
 40 41  1  0  0  0
 40  1  1  0  0  0
  1  2  1  0  0  0
  2  3  1  0  0  0
  3  4  2  0  0  0
  3  5  1  0  0  0
  5 20  1  0  0  0
 20 21  1  0  0  0
 21 22  2  0  0  0
 21 24  1  0  0  0
 24 25  2  0  0  0
 25 26  1  0  0  0
 26 27  2  0  0  0
 27 28  1  0  0  0
 28 29  2  0  0  0
  1  6  1  0  0  0
  6  7  1  0  0  0
  7  8  2  0  0  0
  7  9  1  0  0  0
  9 10  1  0  0  0
 10 11  1  0  0  0
 11 12  2  0  0  0
 12 13  1  0  0  0
 13 14  2  0  0  0
 14 15  1  0  0  0
 14 16  1  0  0  0
 16 17  2  0  0  0
  9 30  1  0  0  0
 30 31  2  0  0  0
 30 32  1  0  0  0
 32 34  1  0  0  0
 34 35  1  0  0  0
 35 36  1  0  0  0
 17  5  1  0  0  0
 29 24  1  0  0  0
 17 11  1  0  0  0
  2 18  1  0  0  0
 20 23  1  0  0  0
  6 19  1  0  0  0
 32 33  1  0  0  0
 36 37  1  0  0  0
 36 38  1  0  0  0
M  END
> <minimizedAffinity>
-2.59813

> <CNNscore>
0.5262677073

> <CNNaffinity>
5.7223458290

> <CNN_VS>
3.0114858150

> <CNNaffinity_variance>
2.1728227139

$$$$
[H]c1c([H])c([H])c(C(=O)N([H])[C@@]2([H])C(=O)N([H])[C@@]([H])(C([H])(C([H])([H])[H])C([H])([H])[H])N([H])C(=O)[C@@]([H])(C(=O)N([H])C([H])([H])C([H])([H])N([H])[H])C([H])([H])c3c([H])c([H])c(F)c([H])c32)c([H])c1[H]


 41 43  0  0  0  0  0  0  0  0999 V2000
   58.9677   -3.4124  -15.8086 C   0  0  0  0  0  0  0  0  0  0  0  0
   58.8015   -2.7351  -14.5413 N   0  0  0  0  0  0  0  0  0  0  0  0
   59.2647   -3.2332  -13.2926 C   0  0  0  0  0  0  0  0  0  0  0  0
   59.6920   -2.4355  -12.3923 O   0  0  0  0  0  0  0  0  0  0  0  0
   59.2852   -4.6763  -12.9506 C   0  0  0  0  0  0  0  0  0  0  0  0
   60.2571   -3.1797  -16.4090 N   0  0  0  0  0  0  0  0  0  0  0  0
   61.3140   -4.0868  -16.5336 C   0  0  0  0  0  0  0  0  0  0  0  0
   61.9396   -4.1222  -17.6513 O   0  0  0  0  0  0  0  0  0  0  0  0
   61.7633   -5.0221  -15.4407 C   0  0  0  0  0  0  0  0  0  0  0  0
   62.1335   -4.2604  -14.2004 C   0  0  0  0  0  0  0  0  0  0  0  0
   61.8112   -4.9602  -12.9330 C   0  0  0  0  0  0  0  0  0  0  0  0
   62.9199   -5.4815  -12.2457 C   0  0  0  0  0  0  0  0  0  0  0  0
   62.8177   -6.1583  -11.0519 C   0  0  0  0  0  0  0  0  0  0  0  0
   61.5725   -6.3383  -10.4967 C   0  0  0  0  0  0  0  0  0  0  0  0
   61.3915   -7.0008   -9.3123 F   0  0  0  0  0  0  0  0  0  0  0  0
   60.4882   -5.8294  -11.1676 C   0  0  0  0  0  0  0  0  0  0  0  0
   60.5805   -5.1374  -12.3858 C   0  0  0  0  0  0  0  0  0  0  0  0
   58.3108   -1.8189  -14.5395 H   0  0  0  0  0  0  0  0  0  0  0  0
   60.4104   -2.1992  -16.7994 H   0  0  0  0  0  0  0  0  0  0  0  0
   58.1903   -4.9100  -12.0231 N   0  0  0  0  0  0  0  0  0  0  0  0
   57.0904   -4.0332  -11.8895 C   0  0  0  0  0  0  0  0  0  0  0  0
   57.0051   -2.9751  -12.5904 O   0  0  0  0  0  0  0  0  0  0  0  0
   58.2267   -5.7593  -11.4388 H   0  0  0  0  0  0  0  0  0  0  0  0
   56.0019   -4.2733  -10.9618 C   0  0  0  0  0  0  0  0  0  0  0  0
   54.6757   -4.3265  -11.3948 C   0  0  0  0  0  0  0  0  0  0  0  0
   53.6177   -4.5500  -10.5529 C   0  0  0  0  0  0  0  0  0  0  0  0
   53.8389   -4.7348   -9.2102 C   0  0  0  0  0  0  0  0  0  0  0  0
   55.1167   -4.6898   -8.7503 C   0  0  0  0  0  0  0  0  0  0  0  0
   56.1921   -4.4610   -9.6173 C   0  0  0  0  0  0  0  0  0  0  0  0
   62.8719   -5.8633  -15.9418 C   0  0  0  0  0  0  0  0  0  0  0  0
   63.1404   -5.8657  -17.1689 O   0  0  0  0  0  0  0  0  0  0  0  0
   63.6660   -6.6855  -15.0950 N   0  0  0  0  0  0  0  0  0  0  0  0
   63.4295   -6.6736  -14.0722 H   0  0  0  0  0  0  0  0  0  0  0  0
   64.7379   -7.5039  -15.5483 C   0  0  0  0  0  0  0  0  0  0  0  0
   64.9740   -7.4718  -17.0361 C   0  0  0  0  0  0  0  0  0  0  0  0
   64.5819   -8.7965  -17.5431 N   0  0  0  0  0  0  0  0  0  0  0  0
   64.8306   -9.4902  -16.7977 H   0  0  0  0  0  0  0  0  0  0  0  0
   63.5316   -8.7896  -17.5748 H   0  0  0  0  0  0  0  0  0  0  0  0
   57.3041   -4.0756  -17.5574 C   0  0  0  0  0  0  0  0  0  0  0  0
   57.8386   -2.9523  -16.7176 C   0  0  0  0  0  0  0  0  0  0  0  0
   58.2805   -1.8373  -17.6381 C   0  0  0  0  0  0  0  0  0  0  0  0
 39 40  1  0  0  0
 40 41  1  0  0  0
 40  1  1  0  0  0
  1  2  1  0  0  0
  2  3  1  0  0  0
  3  4  2  0  0  0
  3  5  1  0  0  0
  5 20  1  0  0  0
 20 21  1  0  0  0
 21 22  2  0  0  0
 21 24  1  0  0  0
 24 25  2  0  0  0
 25 26  1  0  0  0
 26 27  2  0  0  0
 27 28  1  0  0  0
 28 29  2  0  0  0
  1  6  1  0  0  0
  6  7  1  0  0  0
  7  8  2  0  0  0
  7  9  1  0  0  0
  9 10  1  0  0  0
 10 11  1  0  0  0
 11 12  2  0  0  0
 12 13  1  0  0  0
 13 14  2  0  0  0
 14 15  1  0  0  0
 14 16  1  0  0  0
 16 17  2  0  0  0
  9 30  1  0  0  0
 30 31  2  0  0  0
 30 32  1  0  0  0
 32 34  1  0  0  0
 34 35  1  0  0  0
 35 36  1  0  0  0
 17  5  1  0  0  0
 29 24  1  0  0  0
 17 11  1  0  0  0
  2 18  1  0  0  0
 20 23  1  0  0  0
  6 19  1  0  0  0
 32 33  1  0  0  0
 36 37  1  0  0  0
 36 38  1  0  0  0
M  END
> <minimizedAffinity>
3.08794

> <CNNscore>
0.4567361176

> <CNNaffinity>
5.2627878189

> <CNN_VS>
2.4037053585

> <CNNaffinity_variance>
0.8979071379

$$$$
[H]c1c([H])c([H])c(C(=O)N([H])[C@@]2([H])C(=O)N([H])[C@@]([H])(C([H])(C([H])([H])[H])C([H])([H])[H])N([H])C(=O)[C@@]([H])(C(=O)N([H])C([H])([H])C([H])([H])N([H])[H])C([H])([H])c3c([H])c([H])c(F)c([H])c32)c([H])c1[H]


 41 43  0  0  0  0  0  0  0  0999 V2000
   60.7754   -4.2383  -15.3881 C   0  0  0  0  0  0  0  0  0  0  0  0
   61.1208   -3.3829  -14.2740 N   0  0  0  0  0  0  0  0  0  0  0  0
   61.6868   -3.8380  -13.0515 C   0  0  0  0  0  0  0  0  0  0  0  0
   62.5324   -3.1204  -12.4193 O   0  0  0  0  0  0  0  0  0  0  0  0
   61.3467   -5.1435  -12.4349 C   0  0  0  0  0  0  0  0  0  0  0  0
   61.8987   -4.5388  -16.2395 N   0  0  0  0  0  0  0  0  0  0  0  0
   62.5713   -5.7587  -16.3622 C   0  0  0  0  0  0  0  0  0  0  0  0
   62.8799   -6.1523  -17.5419 O   0  0  0  0  0  0  0  0  0  0  0  0
   62.9555   -6.6369  -15.1994 C   0  0  0  0  0  0  0  0  0  0  0  0
   63.8161   -5.8884  -14.2224 C   0  0  0  0  0  0  0  0  0  0  0  0
   63.5992   -6.2624  -12.8036 C   0  0  0  0  0  0  0  0  0  0  0  0
   64.6248   -7.0326  -12.2306 C   0  0  0  0  0  0  0  0  0  0  0  0
   64.6012   -7.4697  -10.9260 C   0  0  0  0  0  0  0  0  0  0  0  0
   63.5243   -7.1412  -10.1364 C   0  0  0  0  0  0  0  0  0  0  0  0
   63.4300   -7.5393   -8.8298 F   0  0  0  0  0  0  0  0  0  0  0  0
   62.5212   -6.3885  -10.6954 C   0  0  0  0  0  0  0  0  0  0  0  0
   62.5347   -5.9372  -12.0249 C   0  0  0  0  0  0  0  0  0  0  0  0
   60.9460   -2.3629  -14.3707 H   0  0  0  0  0  0  0  0  0  0  0  0
   62.2477   -3.7296  -16.8400 H   0  0  0  0  0  0  0  0  0  0  0  0
   60.4786   -4.8664  -11.3022 N   0  0  0  0  0  0  0  0  0  0  0  0
   59.8429   -5.8796  -10.5498 C   0  0  0  0  0  0  0  0  0  0  0  0
   60.0047   -7.1086  -10.8350 O   0  0  0  0  0  0  0  0  0  0  0  0
   60.3253   -3.8799  -11.0425 H   0  0  0  0  0  0  0  0  0  0  0  0
   58.9782   -5.5950   -9.4210 C   0  0  0  0  0  0  0  0  0  0  0  0
   59.0898   -6.3029   -8.2228 C   0  0  0  0  0  0  0  0  0  0  0  0
   58.2935   -6.0673   -7.1327 C   0  0  0  0  0  0  0  0  0  0  0  0
   57.3274   -5.0928   -7.1889 C   0  0  0  0  0  0  0  0  0  0  0  0
   57.1880   -4.3821   -8.3386 C   0  0  0  0  0  0  0  0  0  0  0  0
   58.0058   -4.6292   -9.4479 C   0  0  0  0  0  0  0  0  0  0  0  0
   63.6087   -7.8629  -15.7073 C   0  0  0  0  0  0  0  0  0  0  0  0
   64.6051   -7.7638  -16.4659 O   0  0  0  0  0  0  0  0  0  0  0  0
   63.1626   -9.1730  -15.3783 N   0  0  0  0  0  0  0  0  0  0  0  0
   62.3288   -9.2400  -14.7440 H   0  0  0  0  0  0  0  0  0  0  0  0
   63.7708  -10.3692  -15.8510 C   0  0  0  0  0  0  0  0  0  0  0  0
   63.6902  -10.5745  -17.3415 C   0  0  0  0  0  0  0  0  0  0  0  0
   62.3825  -11.1980  -17.6004 N   0  0  0  0  0  0  0  0  0  0  0  0
   62.1797  -11.8230  -16.7837 H   0  0  0  0  0  0  0  0  0  0  0  0
   61.6787  -10.4205  -17.5349 H   0  0  0  0  0  0  0  0  0  0  0  0
   59.9193   -3.5500  -17.6373 C   0  0  0  0  0  0  0  0  0  0  0  0
   59.6610   -3.5476  -16.1588 C   0  0  0  0  0  0  0  0  0  0  0  0
   59.4742   -2.1161  -15.7096 C   0  0  0  0  0  0  0  0  0  0  0  0
 39 40  1  0  0  0
 40 41  1  0  0  0
 40  1  1  0  0  0
  1  2  1  0  0  0
  2  3  1  0  0  0
  3  4  2  0  0  0
  3  5  1  0  0  0
  5 20  1  0  0  0
 20 21  1  0  0  0
 21 22  2  0  0  0
 21 24  1  0  0  0
 24 25  2  0  0  0
 25 26  1  0  0  0
 26 27  2  0  0  0
 27 28  1  0  0  0
 28 29  2  0  0  0
  1  6  1  0  0  0
  6  7  1  0  0  0
  7  8  2  0  0  0
  7  9  1  0  0  0
  9 10  1  0  0  0
 10 11  1  0  0  0
 11 12  2  0  0  0
 12 13  1  0  0  0
 13 14  2  0  0  0
 14 15  1  0  0  0
 14 16  1  0  0  0
 16 17  2  0  0  0
  9 30  1  0  0  0
 30 31  2  0  0  0
 30 32  1  0  0  0
 32 34  1  0  0  0
 34 35  1  0  0  0
 35 36  1  0  0  0
 17  5  1  0  0  0
 29 24  1  0  0  0
 17 11  1  0  0  0
  2 18  1  0  0  0
 20 23  1  0  0  0
  6 19  1  0  0  0
 32 33  1  0  0  0
 36 37  1  0  0  0
 36 38  1  0  0  0
M  END
> <minimizedAffinity>
6.21148

> <CNNscore>
0.4274481237

> <CNNaffinity>
4.8678421974

> <CNN_VS>
2.0807499886

> <CNNaffinity_variance>
0.8050013781

$$$$
[H]c1c([H])c([H])c(C(=O)N([H])[C@@]2([H])C(=O)N([H])[C@@]([H])(C([H])(C([H])([H])[H])C([H])([H])[H])N([H])C(=O)[C@@]([H])(C(=O)N([H])C([H])([H])C([H])([H])N([H])[H])C([H])([H])c3c([H])c([H])c(F)c([H])c32)c([H])c1[H]


 41 43  0  0  0  0  0  0  0  0999 V2000
   52.2835   -7.0379   -8.0529 C   0  0  0  0  0  0  0  0  0  0  0  0
   53.3697   -7.9449   -7.7533 N   0  0  0  0  0  0  0  0  0  0  0  0
   54.3511   -7.7255   -6.7480 C   0  0  0  0  0  0  0  0  0  0  0  0
   54.8336   -8.7042   -6.0855 O   0  0  0  0  0  0  0  0  0  0  0  0
   54.8748   -6.3812   -6.4034 C   0  0  0  0  0  0  0  0  0  0  0  0
   51.1506   -7.2039   -7.1775 N   0  0  0  0  0  0  0  0  0  0  0  0
   50.7222   -6.3381   -6.1665 C   0  0  0  0  0  0  0  0  0  0  0  0
   49.4650   -6.1096   -6.0715 O   0  0  0  0  0  0  0  0  0  0  0  0
   51.6416   -5.6590   -5.1843 C   0  0  0  0  0  0  0  0  0  0  0  0
   52.4555   -6.6673   -4.4251 C   0  0  0  0  0  0  0  0  0  0  0  0
   53.8296   -6.2191   -4.0919 C   0  0  0  0  0  0  0  0  0  0  0  0
   54.0355   -5.8943   -2.7407 C   0  0  0  0  0  0  0  0  0  0  0  0
   55.2443   -5.4639   -2.2438 C   0  0  0  0  0  0  0  0  0  0  0  0
   56.3095   -5.3424   -3.1052 C   0  0  0  0  0  0  0  0  0  0  0  0
   57.5423   -4.9206   -2.6848 F   0  0  0  0  0  0  0  0  0  0  0  0
   56.1094   -5.6593   -4.4260 C   0  0  0  0  0  0  0  0  0  0  0  0
   54.8808   -6.0994   -4.9440 C   0  0  0  0  0  0  0  0  0  0  0  0
   53.4401   -8.8206   -8.3088 H   0  0  0  0  0  0  0  0  0  0  0  0
   50.5819   -8.0933   -7.3282 H   0  0  0  0  0  0  0  0  0  0  0  0
   56.2120   -6.2877   -6.9661 N   0  0  0  0  0  0  0  0  0  0  0  0
   56.4749   -5.7592   -8.2499 C   0  0  0  0  0  0  0  0  0  0  0  0
   55.5326   -5.3309   -8.9893 O   0  0  0  0  0  0  0  0  0  0  0  0
   57.0005   -6.6257   -6.3933 H   0  0  0  0  0  0  0  0  0  0  0  0
   57.8120   -5.6694   -8.8042 C   0  0  0  0  0  0  0  0  0  0  0  0
   58.0385   -5.1332  -10.0732 C   0  0  0  0  0  0  0  0  0  0  0  0
   59.2842   -5.0301  -10.6351 C   0  0  0  0  0  0  0  0  0  0  0  0
   60.3860   -5.4671   -9.9413 C   0  0  0  0  0  0  0  0  0  0  0  0
   60.2058   -5.9955   -8.7025 C   0  0  0  0  0  0  0  0  0  0  0  0
   58.9296   -6.0971   -8.1357 C   0  0  0  0  0  0  0  0  0  0  0  0
   50.8469   -4.7853   -4.2939 C   0  0  0  0  0  0  0  0  0  0  0  0
   51.4144   -3.8473   -3.6806 O   0  0  0  0  0  0  0  0  0  0  0  0
   49.4490   -4.9518   -4.0893 N   0  0  0  0  0  0  0  0  0  0  0  0
   48.9888   -5.7400   -4.6079 H   0  0  0  0  0  0  0  0  0  0  0  0
   48.6594   -4.1273   -3.2401 C   0  0  0  0  0  0  0  0  0  0  0  0
   48.0614   -2.9172   -3.9096 C   0  0  0  0  0  0  0  0  0  0  0  0
   49.1647   -2.2556   -4.6242 N   0  0  0  0  0  0  0  0  0  0  0  0
   50.0263   -2.3950   -4.0436 H   0  0  0  0  0  0  0  0  0  0  0  0
   49.3223   -2.8245   -5.4936 H   0  0  0  0  0  0  0  0  0  0  0  0
   51.4583   -8.6694   -9.7625 C   0  0  0  0  0  0  0  0  0  0  0  0
   51.9002   -7.2578   -9.5081 C   0  0  0  0  0  0  0  0  0  0  0  0
   53.0458   -6.9409  -10.4424 C   0  0  0  0  0  0  0  0  0  0  0  0
 39 40  1  0  0  0
 40 41  1  0  0  0
 40  1  1  0  0  0
  1  2  1  0  0  0
  2  3  1  0  0  0
  3  4  2  0  0  0
  3  5  1  0  0  0
  5 20  1  0  0  0
 20 21  1  0  0  0
 21 22  2  0  0  0
 21 24  1  0  0  0
 24 25  2  0  0  0
 25 26  1  0  0  0
 26 27  2  0  0  0
 27 28  1  0  0  0
 28 29  2  0  0  0
  1  6  1  0  0  0
  6  7  1  0  0  0
  7  8  2  0  0  0
  7  9  1  0  0  0
  9 10  1  0  0  0
 10 11  1  0  0  0
 11 12  2  0  0  0
 12 13  1  0  0  0
 13 14  2  0  0  0
 14 15  1  0  0  0
 14 16  1  0  0  0
 16 17  2  0  0  0
  9 30  1  0  0  0
 30 31  2  0  0  0
 30 32  1  0  0  0
 32 34  1  0  0  0
 34 35  1  0  0  0
 35 36  1  0  0  0
 17  5  1  0  0  0
 29 24  1  0  0  0
 17 11  1  0  0  0
  2 18  1  0  0  0
 20 23  1  0  0  0
  6 19  1  0  0  0
 32 33  1  0  0  0
 36 37  1  0  0  0
 36 38  1  0  0  0
M  END
> <minimizedAffinity>
14.86033

> <CNNscore>
0.3989814818

> <CNNaffinity>
6.0486073494

> <CNN_VS>
2.4132823944

> <CNNaffinity_variance>
1.1020019054

$$$$
[H]c1c([H])c([H])c(C(=O)N([H])[C@@]2([H])C(=O)N([H])[C@@]([H])(C([H])(C([H])([H])[H])C([H])([H])[H])N([H])C(=O)[C@@]([H])(C(=O)N([H])C([H])([H])C([H])([H])N([H])[H])C([H])([H])c3c([H])c([H])c(F)c([H])c32)c([H])c1[H]


 41 43  0  0  0  0  0  0  0  0999 V2000
   58.6852   -3.8107  -13.3367 C   0  0  0  0  0  0  0  0  0  0  0  0
   59.6012   -4.4342  -14.2664 N   0  0  0  0  0  0  0  0  0  0  0  0
   60.8846   -4.9390  -13.9198 C   0  0  0  0  0  0  0  0  0  0  0  0
   61.3514   -5.9789  -14.4946 O   0  0  0  0  0  0  0  0  0  0  0  0
   61.7542   -4.3129  -12.8942 C   0  0  0  0  0  0  0  0  0  0  0  0
   57.9005   -4.7630  -12.5919 N   0  0  0  0  0  0  0  0  0  0  0  0
   58.0187   -5.0891  -11.2373 C   0  0  0  0  0  0  0  0  0  0  0  0
   56.9392   -5.2112  -10.5579 O   0  0  0  0  0  0  0  0  0  0  0  0
   59.3304   -5.3057  -10.5277 C   0  0  0  0  0  0  0  0  0  0  0  0
   60.1286   -6.3897  -11.1935 C   0  0  0  0  0  0  0  0  0  0  0  0
   61.5957   -6.1729  -11.1688 C   0  0  0  0  0  0  0  0  0  0  0  0
   62.3016   -6.9988  -10.2784 C   0  0  0  0  0  0  0  0  0  0  0  0
   63.6676   -6.9450  -10.1210 C   0  0  0  0  0  0  0  0  0  0  0  0
   64.3857   -6.0409  -10.8681 C   0  0  0  0  0  0  0  0  0  0  0  0
   65.7464   -5.9290  -10.7665 F   0  0  0  0  0  0  0  0  0  0  0  0
   63.6968   -5.2330  -11.7386 C   0  0  0  0  0  0  0  0  0  0  0  0
   62.3036   -5.2791  -11.9073 C   0  0  0  0  0  0  0  0  0  0  0  0
   59.3033   -4.5226  -15.2582 H   0  0  0  0  0  0  0  0  0  0  0  0
   57.1463   -5.2706  -13.1494 H   0  0  0  0  0  0  0  0  0  0  0  0
   62.8166   -3.6183  -13.6028 N   0  0  0  0  0  0  0  0  0  0  0  0
   62.6265   -2.3834  -14.2627 C   0  0  0  0  0  0  0  0  0  0  0  0
   61.4915   -1.8091  -14.2671 O   0  0  0  0  0  0  0  0  0  0  0  0
   63.7509   -4.0554  -13.6193 H   0  0  0  0  0  0  0  0  0  0  0  0
   63.6917   -1.6966  -14.9675 C   0  0  0  0  0  0  0  0  0  0  0  0
   64.0340   -2.0366  -16.2776 C   0  0  0  0  0  0  0  0  0  0  0  0
   65.0332   -1.4147  -16.9798 C   0  0  0  0  0  0  0  0  0  0  0  0
   65.7530   -0.4022  -16.3942 C   0  0  0  0  0  0  0  0  0  0  0  0
   65.4493   -0.0428  -15.1195 C   0  0  0  0  0  0  0  0  0  0  0  0
   64.4269   -0.6834  -14.4091 C   0  0  0  0  0  0  0  0  0  0  0  0
   59.0728   -5.5875   -9.0987 C   0  0  0  0  0  0  0  0  0  0  0  0
   60.0146   -5.9807   -8.3664 O   0  0  0  0  0  0  0  0  0  0  0  0
   57.7931   -5.4353   -8.4963 N   0  0  0  0  0  0  0  0  0  0  0  0
   57.0159   -5.1066   -9.1207 H   0  0  0  0  0  0  0  0  0  0  0  0
   57.5161   -5.6981   -7.1257 C   0  0  0  0  0  0  0  0  0  0  0  0
   56.0525   -5.7219   -6.7685 C   0  0  0  0  0  0  0  0  0  0  0  0
   55.9639   -6.3475   -5.4394 N   0  0  0  0  0  0  0  0  0  0  0  0
   56.7190   -7.0734   -5.3970 H   0  0  0  0  0  0  0  0  0  0  0  0
   56.2558   -5.6050   -4.7554 H   0  0  0  0  0  0  0  0  0  0  0  0
   56.3503   -3.2296  -14.0270 C   0  0  0  0  0  0  0  0  0  0  0  0
   57.8024   -2.8663  -14.1377 C   0  0  0  0  0  0  0  0  0  0  0  0
   58.1805   -2.8536  -15.6015 C   0  0  0  0  0  0  0  0  0  0  0  0
 39 40  1  0  0  0
 40 41  1  0  0  0
 40  1  1  0  0  0
  1  2  1  0  0  0
  2  3  1  0  0  0
  3  4  2  0  0  0
  3  5  1  0  0  0
  5 20  1  0  0  0
 20 21  1  0  0  0
 21 22  2  0  0  0
 21 24  1  0  0  0
 24 25  2  0  0  0
 25 26  1  0  0  0
 26 27  2  0  0  0
 27 28  1  0  0  0
 28 29  2  0  0  0
  1  6  1  0  0  0
  6  7  1  0  0  0
  7  8  2  0  0  0
  7  9  1  0  0  0
  9 10  1  0  0  0
 10 11  1  0  0  0
 11 12  2  0  0  0
 12 13  1  0  0  0
 13 14  2  0  0  0
 14 15  1  0  0  0
 14 16  1  0  0  0
 16 17  2  0  0  0
  9 30  1  0  0  0
 30 31  2  0  0  0
 30 32  1  0  0  0
 32 34  1  0  0  0
 34 35  1  0  0  0
 35 36  1  0  0  0
 17  5  1  0  0  0
 29 24  1  0  0  0
 17 11  1  0  0  0
  2 18  1  0  0  0
 20 23  1  0  0  0
  6 19  1  0  0  0
 32 33  1  0  0  0
 36 37  1  0  0  0
 36 38  1  0  0  0
M  END
> <minimizedAffinity>
6.33475

> <CNNscore>
0.3919051290

> <CNNaffinity>
5.2662611008

> <CNN_VS>
2.0638747215

> <CNNaffinity_variance>
0.5588241816

$$$$
[H]c1c([H])c([H])c(C(=O)N([H])[C@@]2([H])C(=O)N([H])[C@@]([H])(C([H])(C([H])([H])[H])C([H])([H])[H])N([H])C(=O)[C@@]([H])(C(=O)N([H])C([H])([H])C([H])([H])N([H])[H])C([H])([H])c3c([H])c([H])c(F)c([H])c32)c([H])c1[H]


 41 43  0  0  0  0  0  0  0  0999 V2000
   56.7418   -4.6196   -9.1643 C   0  0  0  0  0  0  0  0  0  0  0  0
   56.3159   -5.1851  -10.4257 N   0  0  0  0  0  0  0  0  0  0  0  0
   57.1266   -5.2611  -11.5915 C   0  0  0  0  0  0  0  0  0  0  0  0
   57.0263   -6.2521  -12.3899 O   0  0  0  0  0  0  0  0  0  0  0  0
   58.1212   -4.2237  -11.9585 C   0  0  0  0  0  0  0  0  0  0  0  0
   57.4903   -5.5465   -8.3533 N   0  0  0  0  0  0  0  0  0  0  0  0
   58.8607   -5.5207   -8.0762 C   0  0  0  0  0  0  0  0  0  0  0  0
   59.2289   -5.7544   -6.8713 O   0  0  0  0  0  0  0  0  0  0  0  0
   59.9288   -5.2369   -9.1007 C   0  0  0  0  0  0  0  0  0  0  0  0
   59.8470   -6.2066  -10.2445 C   0  0  0  0  0  0  0  0  0  0  0  0
   60.2024   -5.6290  -11.5636 C   0  0  0  0  0  0  0  0  0  0  0  0
   61.4499   -6.0304  -12.0695 C   0  0  0  0  0  0  0  0  0  0  0  0
   61.9470   -5.6019  -13.2789 C   0  0  0  0  0  0  0  0  0  0  0  0
   61.1924   -4.7375  -14.0369 C   0  0  0  0  0  0  0  0  0  0  0  0
   61.6200   -4.2682  -15.2499 F   0  0  0  0  0  0  0  0  0  0  0  0
   59.9730   -4.3443  -13.5435 C   0  0  0  0  0  0  0  0  0  0  0  0
   59.4558   -4.7750  -12.3112 C   0  0  0  0  0  0  0  0  0  0  0  0
   55.3505   -5.5652  -10.4878 H   0  0  0  0  0  0  0  0  0  0  0  0
   56.9224   -6.3385   -7.9205 H   0  0  0  0  0  0  0  0  0  0  0  0
   57.5554   -3.4617  -13.0598 N   0  0  0  0  0  0  0  0  0  0  0  0
   56.9600   -4.0641  -14.1907 C   0  0  0  0  0  0  0  0  0  0  0  0
   56.8894   -5.3294  -14.3001 O   0  0  0  0  0  0  0  0  0  0  0  0
   57.5951   -2.4324  -13.0040 H   0  0  0  0  0  0  0  0  0  0  0  0
   56.3977   -3.2968  -15.2854 C   0  0  0  0  0  0  0  0  0  0  0  0
   55.7690   -2.0698  -15.0658 C   0  0  0  0  0  0  0  0  0  0  0  0
   55.2241   -1.3132  -16.0702 C   0  0  0  0  0  0  0  0  0  0  0  0
   55.2825   -1.7558  -17.3690 C   0  0  0  0  0  0  0  0  0  0  0  0
   55.8866   -2.9462  -17.6228 C   0  0  0  0  0  0  0  0  0  0  0  0
   56.4409   -3.7130  -16.5907 C   0  0  0  0  0  0  0  0  0  0  0  0
   61.2532   -5.2469   -8.4423 C   0  0  0  0  0  0  0  0  0  0  0  0
   61.3238   -5.1309   -7.1934 O   0  0  0  0  0  0  0  0  0  0  0  0
   62.4748   -5.3830   -9.1585 N   0  0  0  0  0  0  0  0  0  0  0  0
   62.4000   -5.4785  -10.2012 H   0  0  0  0  0  0  0  0  0  0  0  0
   63.7620   -5.3965   -8.5525 C   0  0  0  0  0  0  0  0  0  0  0  0
   64.5572   -6.6554   -8.7825 C   0  0  0  0  0  0  0  0  0  0  0  0
   64.1847   -7.5805   -7.7002 N   0  0  0  0  0  0  0  0  0  0  0  0
   64.0106   -6.9939   -6.8491 H   0  0  0  0  0  0  0  0  0  0  0  0
   63.2444   -7.9664   -7.9668 H   0  0  0  0  0  0  0  0  0  0  0  0
   55.5547   -4.4077   -6.9708 C   0  0  0  0  0  0  0  0  0  0  0  0
   55.4944   -4.1309   -8.4447 C   0  0  0  0  0  0  0  0  0  0  0  0
   54.2418   -4.7709   -8.9992 C   0  0  0  0  0  0  0  0  0  0  0  0
 39 40  1  0  0  0
 40 41  1  0  0  0
 40  1  1  0  0  0
  1  2  1  0  0  0
  2  3  1  0  0  0
  3  4  2  0  0  0
  3  5  1  0  0  0
  5 20  1  0  0  0
 20 21  1  0  0  0
 21 22  2  0  0  0
 21 24  1  0  0  0
 24 25  2  0  0  0
 25 26  1  0  0  0
 26 27  2  0  0  0
 27 28  1  0  0  0
 28 29  2  0  0  0
  1  6  1  0  0  0
  6  7  1  0  0  0
  7  8  2  0  0  0
  7  9  1  0  0  0
  9 10  1  0  0  0
 10 11  1  0  0  0
 11 12  2  0  0  0
 12 13  1  0  0  0
 13 14  2  0  0  0
 14 15  1  0  0  0
 14 16  1  0  0  0
 16 17  2  0  0  0
  9 30  1  0  0  0
 30 31  2  0  0  0
 30 32  1  0  0  0
 32 34  1  0  0  0
 34 35  1  0  0  0
 35 36  1  0  0  0
 17  5  1  0  0  0
 29 24  1  0  0  0
 17 11  1  0  0  0
  2 18  1  0  0  0
 20 23  1  0  0  0
  6 19  1  0  0  0
 32 33  1  0  0  0
 36 37  1  0  0  0
 36 38  1  0  0  0
M  END
> <minimizedAffinity>
15.75119

> <CNNscore>
0.3344120085

> <CNNaffinity>
5.5249814987

> <CNN_VS>
1.8476201296

> <CNNaffinity_variance>
0.6309298277

$$$$
[H]O[C@@]1([H])C([H])([H])N(c2c([H])c([H])c(-c3nc(-c4c([H])c([H])c(N5C([H])([H])C([H])([H])C([H])(N6C([H])([H])C([H])([H])C([H])(N7C([H])([H])C([H])([H])C([H])([H])C([H])([H])C7([H])[H])C([H])([H])C6([H])[H])C([H])([H])C5([H])[H])c([H])c4[H])c([H])s3)c([H])c2[H])C([H])([H])[C@@]1([H])C([H])([H])[H]


 43 49  0  0  0  0  0  0  0  0999 V2000
   58.4811   -5.3441   -9.7094 C   0  0  0  0  0  0  0  0  0  0  0  0
   58.8786   -5.7866   -8.4862 C   0  0  0  0  0  0  0  0  0  0  0  0
   60.1443   -6.3592   -8.2893 C   0  0  0  0  0  0  0  0  0  0  0  0
   61.0235   -6.4885   -9.3421 C   0  0  0  0  0  0  0  0  0  0  0  0
   60.6224   -6.0419  -10.5781 C   0  0  0  0  0  0  0  0  0  0  0  0
   59.3663   -5.4780  -10.7567 C   0  0  0  0  0  0  0  0  0  0  0  0
   62.2998   -7.0763   -9.1656 N   0  0  0  0  0  0  0  0  0  0  0  0
   63.0889   -6.8893   -7.9794 C   0  0  0  0  0  0  0  0  0  0  0  0
   63.3472   -8.2561   -7.3693 C   0  0  0  0  0  0  0  0  0  0  0  0
   63.9718   -9.1521   -8.4090 C   0  0  0  0  0  0  0  0  0  0  0  0
   63.0392   -9.2847   -9.6249 C   0  0  0  0  0  0  0  0  0  0  0  0
   62.8679   -7.8876  -10.2072 C   0  0  0  0  0  0  0  0  0  0  0  0
   64.3969  -10.3976   -7.9242 N   0  0  0  0  0  0  0  0  0  0  0  0
   65.2582  -10.4059   -6.7953 C   0  0  0  0  0  0  0  0  0  0  0  0
   65.2839  -11.7288   -6.0814 C   0  0  0  0  0  0  0  0  0  0  0  0
   64.6654  -12.8753   -6.7728 C   0  0  0  0  0  0  0  0  0  0  0  0
   64.4359  -12.7525   -8.2420 C   0  0  0  0  0  0  0  0  0  0  0  0
   64.7669  -11.4095   -8.8447 C   0  0  0  0  0  0  0  0  0  0  0  0
   63.4816  -13.4116   -6.1761 N   0  0  0  0  0  0  0  0  0  0  0  0
   63.4470  -13.6218   -4.7892 C   0  0  0  0  0  0  0  0  0  0  0  0
   61.9528  -13.7084   -4.4035 C   0  0  0  0  0  0  0  0  0  0  0  0
   61.2553  -14.8150   -5.1462 C   0  0  0  0  0  0  0  0  0  0  0  0
   62.1766  -15.5103   -6.1279 C   0  0  0  0  0  0  0  0  0  0  0  0
   62.8490  -14.4410   -6.9636 C   0  0  0  0  0  0  0  0  0  0  0  0
   55.0228   -4.1985   -9.3316 C   0  0  0  0  0  0  0  0  0  0  0  0
   56.1726   -4.7561   -9.0555 N   0  0  0  0  0  0  0  0  0  0  0  0
   57.1503   -4.7047   -9.9279 C   0  0  0  0  0  0  0  0  0  0  0  0
   56.8920   -4.0481  -11.1057 C   0  0  0  0  0  0  0  0  0  0  0  0
   55.2733   -3.5508  -10.8898 S   0  0  0  0  0  0  0  0  0  0  0  0
   51.4744   -4.0033   -6.9435 C   0  0  0  0  0  0  0  0  0  0  0  0
   51.7429   -3.0609   -7.9174 C   0  0  0  0  0  0  0  0  0  0  0  0
   52.8855   -3.1422   -8.6862 C   0  0  0  0  0  0  0  0  0  0  0  0
   53.7857   -4.1681   -8.5000 C   0  0  0  0  0  0  0  0  0  0  0  0
   53.5568   -5.1116   -7.5557 C   0  0  0  0  0  0  0  0  0  0  0  0
   52.4139   -5.0131   -6.7995 C   0  0  0  0  0  0  0  0  0  0  0  0
   47.3666   -2.7759   -4.5317 C   0  0  0  0  0  0  0  0  0  0  0  0
   48.8816   -2.8266   -4.6845 C   0  0  0  0  0  0  0  0  0  0  0  0
   49.2546   -2.9788   -6.1378 C   0  0  0  0  0  0  0  0  0  0  0  0
   50.3007   -3.9634   -6.1216 N   0  0  0  0  0  0  0  0  0  0  0  0
   49.9769   -4.9309   -5.0981 C   0  0  0  0  0  0  0  0  0  0  0  0
   49.4628   -4.0189   -3.9837 C   0  0  0  0  0  0  0  0  0  0  0  0
   48.5673   -4.7252   -3.2159 O   0  0  0  0  0  0  0  0  0  0  0  0
   48.4551   -4.2620   -2.3528 H   0  0  0  0  0  0  0  0  0  0  0  0
 36 37  1  0  0  0
 37 38  1  0  0  0
 38 39  1  0  0  0
 39 40  1  0  0  0
 40 41  1  0  0  0
 41 42  1  0  0  0
 39 30  1  0  0  0
 30 31  2  0  0  0
 31 32  1  0  0  0
 32 33  2  0  0  0
 33 34  1  0  0  0
 34 35  2  0  0  0
 33 25  1  0  0  0
 25 26  2  0  0  0
 26 27  1  0  0  0
 27 28  2  0  0  0
 28 29  1  0  0  0
 27  1  1  0  0  0
  1  2  2  0  0  0
  2  3  1  0  0  0
  3  4  2  0  0  0
  4  5  1  0  0  0
  5  6  2  0  0  0
  4  7  1  0  0  0
  7  8  1  0  0  0
  8  9  1  0  0  0
  9 10  1  0  0  0
 10 11  1  0  0  0
 11 12  1  0  0  0
 10 13  1  0  0  0
 13 14  1  0  0  0
 14 15  1  0  0  0
 15 16  1  0  0  0
 16 17  1  0  0  0
 17 18  1  0  0  0
 16 19  1  0  0  0
 19 20  1  0  0  0
 20 21  1  0  0  0
 21 22  1  0  0  0
 22 23  1  0  0  0
 23 24  1  0  0  0
 41 37  1  0  0  0
 35 30  1  0  0  0
 29 25  1  0  0  0
  6  1  1  0  0  0
 12  7  1  0  0  0
 18 13  1  0  0  0
 24 19  1  0  0  0
 42 43  1  0  0  0
M  END
> <minimizedAffinity>
-8.43407

> <CNNscore>
0.3511936963

> <CNNaffinity>
6.5824403763

> <CNN_VS>
2.3117115498

> <CNNaffinity_variance>
0.1456407607

$$$$
[H]O[C@@]1([H])C([H])([H])N(c2c([H])c([H])c(-c3nc(-c4c([H])c([H])c(N5C([H])([H])C([H])([H])C([H])(N6C([H])([H])C([H])([H])C([H])(N7C([H])([H])C([H])([H])C([H])([H])C([H])([H])C7([H])[H])C([H])([H])C6([H])[H])C([H])([H])C5([H])[H])c([H])c4[H])c([H])s3)c([H])c2[H])C([H])([H])[C@@]1([H])C([H])([H])[H]


 43 49  0  0  0  0  0  0  0  0999 V2000
   56.1161   -4.0186  -11.2190 C   0  0  0  0  0  0  0  0  0  0  0  0
   57.4705   -3.9689  -11.3339 C   0  0  0  0  0  0  0  0  0  0  0  0
   58.0979   -3.8959  -12.5868 C   0  0  0  0  0  0  0  0  0  0  0  0
   57.3484   -3.8732  -13.7426 C   0  0  0  0  0  0  0  0  0  0  0  0
   55.9802   -3.9237  -13.6271 C   0  0  0  0  0  0  0  0  0  0  0  0
   55.3745   -3.9962  -12.3799 C   0  0  0  0  0  0  0  0  0  0  0  0
   57.9642   -3.8137  -15.0165 N   0  0  0  0  0  0  0  0  0  0  0  0
   57.4135   -4.4500  -16.1811 C   0  0  0  0  0  0  0  0  0  0  0  0
   57.1629   -3.3766  -17.2261 C   0  0  0  0  0  0  0  0  0  0  0  0
   58.4408   -2.6134  -17.4679 C   0  0  0  0  0  0  0  0  0  0  0  0
   58.9315   -1.9715  -16.1591 C   0  0  0  0  0  0  0  0  0  0  0  0
   59.2055   -3.1081  -15.1828 C   0  0  0  0  0  0  0  0  0  0  0  0
   58.3775   -1.6918  -18.5232 N   0  0  0  0  0  0  0  0  0  0  0  0
   57.9455   -2.1687  -19.7890 C   0  0  0  0  0  0  0  0  0  0  0  0
   57.4727   -1.0730  -20.7033 C   0  0  0  0  0  0  0  0  0  0  0  0
   57.7694    0.3133  -20.2969 C   0  0  0  0  0  0  0  0  0  0  0  0
   58.8317    0.5183  -19.2695 C   0  0  0  0  0  0  0  0  0  0  0  0
   59.4155   -0.7390  -18.6739 C   0  0  0  0  0  0  0  0  0  0  0  0
   56.6452    1.1263  -19.9498 N   0  0  0  0  0  0  0  0  0  0  0  0
   55.4274    0.5103  -19.6241 C   0  0  0  0  0  0  0  0  0  0  0  0
   54.6099    1.5602  -18.8377 C   0  0  0  0  0  0  0  0  0  0  0  0
   54.3962    2.8104  -19.6463 C   0  0  0  0  0  0  0  0  0  0  0  0
   55.0939    2.7454  -20.9898 C   0  0  0  0  0  0  0  0  0  0  0  0
   56.5279    2.3249  -20.7432 C   0  0  0  0  0  0  0  0  0  0  0  0
   55.3174   -4.5899   -7.6904 C   0  0  0  0  0  0  0  0  0  0  0  0
   55.9906   -4.5537   -8.8105 N   0  0  0  0  0  0  0  0  0  0  0  0
   55.4335   -4.0650   -9.8925 C   0  0  0  0  0  0  0  0  0  0  0  0
   54.1439   -3.6101   -9.7705 C   0  0  0  0  0  0  0  0  0  0  0  0
   53.8131   -3.9118   -8.1232 S   0  0  0  0  0  0  0  0  0  0  0  0
   56.5298   -6.2277   -3.9248 C   0  0  0  0  0  0  0  0  0  0  0  0
   56.6863   -6.9317   -5.1031 C   0  0  0  0  0  0  0  0  0  0  0  0
   56.3002   -6.3872   -6.3105 C   0  0  0  0  0  0  0  0  0  0  0  0
   55.7497   -5.1257   -6.3679 C   0  0  0  0  0  0  0  0  0  0  0  0
   55.5814   -4.4042   -5.2343 C   0  0  0  0  0  0  0  0  0  0  0  0
   55.9711   -4.9638   -4.0415 C   0  0  0  0  0  0  0  0  0  0  0  0
   57.3148   -8.9757    0.0789 C   0  0  0  0  0  0  0  0  0  0  0  0
   56.4696   -8.0374   -0.7734 C   0  0  0  0  0  0  0  0  0  0  0  0
   56.8943   -8.1199   -2.2181 C   0  0  0  0  0  0  0  0  0  0  0  0
   56.9175   -6.7490   -2.6471 N   0  0  0  0  0  0  0  0  0  0  0  0
   57.3953   -5.9511   -1.5409 C   0  0  0  0  0  0  0  0  0  0  0  0
   56.6639   -6.6060   -0.3687 C   0  0  0  0  0  0  0  0  0  0  0  0
   57.4131   -6.4292    0.7706 O   0  0  0  0  0  0  0  0  0  0  0  0
   56.8367   -6.5818    1.5559 H   0  0  0  0  0  0  0  0  0  0  0  0
 36 37  1  0  0  0
 37 38  1  0  0  0
 38 39  1  0  0  0
 39 40  1  0  0  0
 40 41  1  0  0  0
 41 42  1  0  0  0
 39 30  1  0  0  0
 30 31  2  0  0  0
 31 32  1  0  0  0
 32 33  2  0  0  0
 33 34  1  0  0  0
 34 35  2  0  0  0
 33 25  1  0  0  0
 25 26  2  0  0  0
 26 27  1  0  0  0
 27 28  2  0  0  0
 28 29  1  0  0  0
 27  1  1  0  0  0
  1  2  2  0  0  0
  2  3  1  0  0  0
  3  4  2  0  0  0
  4  5  1  0  0  0
  5  6  2  0  0  0
  4  7  1  0  0  0
  7  8  1  0  0  0
  8  9  1  0  0  0
  9 10  1  0  0  0
 10 11  1  0  0  0
 11 12  1  0  0  0
 10 13  1  0  0  0
 13 14  1  0  0  0
 14 15  1  0  0  0
 15 16  1  0  0  0
 16 17  1  0  0  0
 17 18  1  0  0  0
 16 19  1  0  0  0
 19 20  1  0  0  0
 20 21  1  0  0  0
 21 22  1  0  0  0
 22 23  1  0  0  0
 23 24  1  0  0  0
 41 37  1  0  0  0
 35 30  1  0  0  0
 29 25  1  0  0  0
  6  1  1  0  0  0
 12  7  1  0  0  0
 18 13  1  0  0  0
 24 19  1  0  0  0
 42 43  1  0  0  0
M  END
> <minimizedAffinity>
-6.85530

> <CNNscore>
0.2882134318

> <CNNaffinity>
6.3965520859

> <CNN_VS>
1.8435722589

> <CNNaffinity_variance>
0.1453838944

$$$$
[H]O[C@@]1([H])C([H])([H])N(c2c([H])c([H])c(-c3nc(-c4c([H])c([H])c(N5C([H])([H])C([H])([H])C([H])(N6C([H])([H])C([H])([H])C([H])(N7C([H])([H])C([H])([H])C([H])([H])C([H])([H])C7([H])[H])C([H])([H])C6([H])[H])C([H])([H])C5([H])[H])c([H])c4[H])c([H])s3)c([H])c2[H])C([H])([H])[C@@]1([H])C([H])([H])[H]


 43 49  0  0  0  0  0  0  0  0999 V2000
   57.1145   -4.1286  -12.0275 C   0  0  0  0  0  0  0  0  0  0  0  0
   58.3930   -3.8886  -12.4251 C   0  0  0  0  0  0  0  0  0  0  0  0
   58.7054   -3.6187  -13.7661 C   0  0  0  0  0  0  0  0  0  0  0  0
   57.7136   -3.5906  -14.7220 C   0  0  0  0  0  0  0  0  0  0  0  0
   56.4219   -3.8332  -14.3209 C   0  0  0  0  0  0  0  0  0  0  0  0
   56.1292   -4.0993  -12.9901 C   0  0  0  0  0  0  0  0  0  0  0  0
   58.0114   -3.3335  -16.0824 N   0  0  0  0  0  0  0  0  0  0  0  0
   57.3516   -4.0059  -17.1673 C   0  0  0  0  0  0  0  0  0  0  0  0
   56.6758   -2.9529  -18.0283 C   0  0  0  0  0  0  0  0  0  0  0  0
   57.6978   -1.9270  -18.4490 C   0  0  0  0  0  0  0  0  0  0  0  0
   58.3308   -1.2696  -17.2108 C   0  0  0  0  0  0  0  0  0  0  0  0
   59.0261   -2.3757  -16.4277 C   0  0  0  0  0  0  0  0  0  0  0  0
   57.2281   -0.9825  -19.3731 N   0  0  0  0  0  0  0  0  0  0  0  0
   56.5803   -1.4682  -20.5397 C   0  0  0  0  0  0  0  0  0  0  0  0
   55.7258   -0.4323  -21.2157 C   0  0  0  0  0  0  0  0  0  0  0  0
   55.8854    0.9638  -20.7680 C   0  0  0  0  0  0  0  0  0  0  0  0
   57.1207    1.3061  -20.0045 C   0  0  0  0  0  0  0  0  0  0  0  0
   58.0288    0.1465  -19.6774 C   0  0  0  0  0  0  0  0  0  0  0  0
   54.7654    1.5456  -20.0955 N   0  0  0  0  0  0  0  0  0  0  0  0
   54.7281    2.9345  -19.8998 C   0  0  0  0  0  0  0  0  0  0  0  0
   53.2485    3.2926  -19.6322 C   0  0  0  0  0  0  0  0  0  0  0  0
   52.7101    2.5532  -18.4381 C   0  0  0  0  0  0  0  0  0  0  0  0
   53.7312    1.5999  -17.8512 C   0  0  0  0  0  0  0  0  0  0  0  0
   54.2826    0.7615  -18.9856 C   0  0  0  0  0  0  0  0  0  0  0  0
   55.3185   -4.4922   -8.8562 C   0  0  0  0  0  0  0  0  0  0  0  0
   55.5443   -4.2816  -10.1265 N   0  0  0  0  0  0  0  0  0  0  0  0
   56.7627   -4.3865  -10.6001 C   0  0  0  0  0  0  0  0  0  0  0  0
   57.7464   -4.7217   -9.7029 C   0  0  0  0  0  0  0  0  0  0  0  0
   56.8680   -4.8625   -8.2460 S   0  0  0  0  0  0  0  0  0  0  0  0
   51.6105   -4.1116   -6.7495 C   0  0  0  0  0  0  0  0  0  0  0  0
   51.9216   -3.2938   -7.8186 C   0  0  0  0  0  0  0  0  0  0  0  0
   53.1161   -3.4346   -8.4944 C   0  0  0  0  0  0  0  0  0  0  0  0
   54.0268   -4.3970   -8.1177 C   0  0  0  0  0  0  0  0  0  0  0  0
   53.7572   -5.2185   -7.0753 C   0  0  0  0  0  0  0  0  0  0  0  0
   52.5630   -5.0623   -6.4142 C   0  0  0  0  0  0  0  0  0  0  0  0
   47.3970   -2.6629   -4.6653 C   0  0  0  0  0  0  0  0  0  0  0  0
   48.9151   -2.7842   -4.7042 C   0  0  0  0  0  0  0  0  0  0  0  0
   49.3870   -2.9757   -6.1238 C   0  0  0  0  0  0  0  0  0  0  0  0
   50.3825   -4.0061   -6.0178 N   0  0  0  0  0  0  0  0  0  0  0  0
   49.9397   -4.9420   -5.0096 C   0  0  0  0  0  0  0  0  0  0  0  0
   49.3874   -3.9905   -3.9477 C   0  0  0  0  0  0  0  0  0  0  0  0
   48.4060   -4.6437   -3.2402 O   0  0  0  0  0  0  0  0  0  0  0  0
   48.2520   -4.1626   -2.3935 H   0  0  0  0  0  0  0  0  0  0  0  0
 36 37  1  0  0  0
 37 38  1  0  0  0
 38 39  1  0  0  0
 39 40  1  0  0  0
 40 41  1  0  0  0
 41 42  1  0  0  0
 39 30  1  0  0  0
 30 31  2  0  0  0
 31 32  1  0  0  0
 32 33  2  0  0  0
 33 34  1  0  0  0
 34 35  2  0  0  0
 33 25  1  0  0  0
 25 26  2  0  0  0
 26 27  1  0  0  0
 27 28  2  0  0  0
 28 29  1  0  0  0
 27  1  1  0  0  0
  1  2  2  0  0  0
  2  3  1  0  0  0
  3  4  2  0  0  0
  4  5  1  0  0  0
  5  6  2  0  0  0
  4  7  1  0  0  0
  7  8  1  0  0  0
  8  9  1  0  0  0
  9 10  1  0  0  0
 10 11  1  0  0  0
 11 12  1  0  0  0
 10 13  1  0  0  0
 13 14  1  0  0  0
 14 15  1  0  0  0
 15 16  1  0  0  0
 16 17  1  0  0  0
 17 18  1  0  0  0
 16 19  1  0  0  0
 19 20  1  0  0  0
 20 21  1  0  0  0
 21 22  1  0  0  0
 22 23  1  0  0  0
 23 24  1  0  0  0
 41 37  1  0  0  0
 35 30  1  0  0  0
 29 25  1  0  0  0
  6  1  1  0  0  0
 12  7  1  0  0  0
 18 13  1  0  0  0
 24 19  1  0  0  0
 42 43  1  0  0  0
M  END
> <minimizedAffinity>
-11.01946

> <CNNscore>
0.2709582746

> <CNNaffinity>
6.6904435158

> <CNN_VS>
1.8128310442

> <CNNaffinity_variance>
0.1665990055

$$$$
[H]O[C@@]1([H])C([H])([H])N(c2c([H])c([H])c(-c3nc(-c4c([H])c([H])c(N5C([H])([H])C([H])([H])C([H])(N6C([H])([H])C([H])([H])C([H])(N7C([H])([H])C([H])([H])C([H])([H])C([H])([H])C7([H])[H])C([H])([H])C6([H])[H])C([H])([H])C5([H])[H])c([H])c4[H])c([H])s3)c([H])c2[H])C([H])([H])[C@@]1([H])C([H])([H])[H]


 43 49  0  0  0  0  0  0  0  0999 V2000
   57.1760   -4.0101  -12.3414 C   0  0  0  0  0  0  0  0  0  0  0  0
   56.2225   -3.9755  -13.3108 C   0  0  0  0  0  0  0  0  0  0  0  0
   56.5490   -3.7231  -14.6518 C   0  0  0  0  0  0  0  0  0  0  0  0
   57.8575   -3.5014  -15.0219 C   0  0  0  0  0  0  0  0  0  0  0  0
   58.8211   -3.5359  -14.0430 C   0  0  0  0  0  0  0  0  0  0  0  0
   58.4816   -3.7866  -12.7203 C   0  0  0  0  0  0  0  0  0  0  0  0
   58.2045   -3.2314  -16.3681 N   0  0  0  0  0  0  0  0  0  0  0  0
   57.5268   -2.2487  -17.1678 C   0  0  0  0  0  0  0  0  0  0  0  0
   58.5534   -1.2243  -17.6193 C   0  0  0  0  0  0  0  0  0  0  0  0
   59.6868   -1.9337  -18.3165 C   0  0  0  0  0  0  0  0  0  0  0  0
   60.3399   -2.9521  -17.3666 C   0  0  0  0  0  0  0  0  0  0  0  0
   59.2660   -3.9677  -16.9984 C   0  0  0  0  0  0  0  0  0  0  0  0
   60.6271   -1.0816  -18.9135 N   0  0  0  0  0  0  0  0  0  0  0  0
   60.1957    0.2200  -19.2825 C   0  0  0  0  0  0  0  0  0  0  0  0
   61.3309    1.1874  -19.4712 C   0  0  0  0  0  0  0  0  0  0  0  0
   62.6916    0.6211  -19.5265 C   0  0  0  0  0  0  0  0  0  0  0  0
   62.8196   -0.8403  -19.7983 C   0  0  0  0  0  0  0  0  0  0  0  0
   61.5220   -1.6058  -19.8793 C   0  0  0  0  0  0  0  0  0  0  0  0
   63.5612    0.9546  -18.4413 N   0  0  0  0  0  0  0  0  0  0  0  0
   64.3452    2.1154  -18.5221 C   0  0  0  0  0  0  0  0  0  0  0  0
   64.7564    2.4597  -17.0724 C   0  0  0  0  0  0  0  0  0  0  0  0
   65.5116    1.3282  -16.4305 C   0  0  0  0  0  0  0  0  0  0  0  0
   65.6127    0.1221  -17.3421 C   0  0  0  0  0  0  0  0  0  0  0  0
   64.2207   -0.1855  -17.8536 C   0  0  0  0  0  0  0  0  0  0  0  0
   55.4342   -4.4591   -9.1508 C   0  0  0  0  0  0  0  0  0  0  0  0
   55.6386   -4.2125  -10.4183 N   0  0  0  0  0  0  0  0  0  0  0  0
   56.8480   -4.3080  -10.9161 C   0  0  0  0  0  0  0  0  0  0  0  0
   57.8459   -4.6728  -10.0464 C   0  0  0  0  0  0  0  0  0  0  0  0
   56.9925   -4.8526   -8.5790 S   0  0  0  0  0  0  0  0  0  0  0  0
   51.7662   -4.1261   -6.9674 C   0  0  0  0  0  0  0  0  0  0  0  0
   52.0708   -3.2654   -8.0042 C   0  0  0  0  0  0  0  0  0  0  0  0
   53.2522   -3.3909   -8.7055 C   0  0  0  0  0  0  0  0  0  0  0  0
   54.1560   -4.3806   -8.3873 C   0  0  0  0  0  0  0  0  0  0  0  0
   53.8924   -5.2443   -7.3779 C   0  0  0  0  0  0  0  0  0  0  0  0
   52.7112   -5.1027   -6.6906 C   0  0  0  0  0  0  0  0  0  0  0  0
   47.6000   -2.7223   -4.7609 C   0  0  0  0  0  0  0  0  0  0  0  0
   49.1163   -2.8527   -4.8305 C   0  0  0  0  0  0  0  0  0  0  0  0
   49.5623   -2.9975   -6.2638 C   0  0  0  0  0  0  0  0  0  0  0  0
   50.5517   -4.0378   -6.2113 N   0  0  0  0  0  0  0  0  0  0  0  0
   50.1192   -5.0055   -5.2289 C   0  0  0  0  0  0  0  0  0  0  0  0
   49.5924   -4.0881   -4.1249 C   0  0  0  0  0  0  0  0  0  0  0  0
   48.6183   -4.7589   -3.4238 O   0  0  0  0  0  0  0  0  0  0  0  0
   48.4824   -4.3067   -2.5581 H   0  0  0  0  0  0  0  0  0  0  0  0
 36 37  1  0  0  0
 37 38  1  0  0  0
 38 39  1  0  0  0
 39 40  1  0  0  0
 40 41  1  0  0  0
 41 42  1  0  0  0
 39 30  1  0  0  0
 30 31  2  0  0  0
 31 32  1  0  0  0
 32 33  2  0  0  0
 33 34  1  0  0  0
 34 35  2  0  0  0
 33 25  1  0  0  0
 25 26  2  0  0  0
 26 27  1  0  0  0
 27 28  2  0  0  0
 28 29  1  0  0  0
 27  1  1  0  0  0
  1  2  2  0  0  0
  2  3  1  0  0  0
  3  4  2  0  0  0
  4  5  1  0  0  0
  5  6  2  0  0  0
  4  7  1  0  0  0
  7  8  1  0  0  0
  8  9  1  0  0  0
  9 10  1  0  0  0
 10 11  1  0  0  0
 11 12  1  0  0  0
 10 13  1  0  0  0
 13 14  1  0  0  0
 14 15  1  0  0  0
 15 16  1  0  0  0
 16 17  1  0  0  0
 17 18  1  0  0  0
 16 19  1  0  0  0
 19 20  1  0  0  0
 20 21  1  0  0  0
 21 22  1  0  0  0
 22 23  1  0  0  0
 23 24  1  0  0  0
 41 37  1  0  0  0
 35 30  1  0  0  0
 29 25  1  0  0  0
  6  1  1  0  0  0
 12  7  1  0  0  0
 18 13  1  0  0  0
 24 19  1  0  0  0
 42 43  1  0  0  0
M  END
> <minimizedAffinity>
-10.65611

> <CNNscore>
0.2658333480

> <CNNaffinity>
6.3349761963

> <CNN_VS>
1.6840479374

> <CNNaffinity_variance>
0.0323400833

$$$$
[H]O[C@@]1([H])C([H])([H])N(c2c([H])c([H])c(-c3nc(-c4c([H])c([H])c(N5C([H])([H])C([H])([H])C([H])(N6C([H])([H])C([H])([H])C([H])(N7C([H])([H])C([H])([H])C([H])([H])C([H])([H])C7([H])[H])C([H])([H])C6([H])[H])C([H])([H])C5([H])[H])c([H])c4[H])c([H])s3)c([H])c2[H])C([H])([H])[C@@]1([H])C([H])([H])[H]


 43 49  0  0  0  0  0  0  0  0999 V2000
   57.2776   -4.1024  -11.7872 C   0  0  0  0  0  0  0  0  0  0  0  0
   56.3611   -3.9313  -12.7775 C   0  0  0  0  0  0  0  0  0  0  0  0
   56.7499   -3.6469  -14.0953 C   0  0  0  0  0  0  0  0  0  0  0  0
   58.0839   -3.5325  -14.4204 C   0  0  0  0  0  0  0  0  0  0  0  0
   59.0102   -3.7051  -13.4203 C   0  0  0  0  0  0  0  0  0  0  0  0
   58.6092   -3.9856  -12.1210 C   0  0  0  0  0  0  0  0  0  0  0  0
   58.4950   -3.2323  -15.7419 N   0  0  0  0  0  0  0  0  0  0  0  0
   59.8567   -2.9304  -16.0871 C   0  0  0  0  0  0  0  0  0  0  0  0
   60.3158   -3.9502  -17.1148 C   0  0  0  0  0  0  0  0  0  0  0  0
   59.3544   -3.9493  -18.2766 C   0  0  0  0  0  0  0  0  0  0  0  0
   57.9353   -4.2910  -17.7915 C   0  0  0  0  0  0  0  0  0  0  0  0
   57.5292   -3.2028  -16.8061 C   0  0  0  0  0  0  0  0  0  0  0  0
   59.7527   -4.7429  -19.3622 N   0  0  0  0  0  0  0  0  0  0  0  0
   61.1409   -4.8125  -19.6528 C   0  0  0  0  0  0  0  0  0  0  0  0
   61.5095   -6.0028  -20.4940 C   0  0  0  0  0  0  0  0  0  0  0  0
   60.4022   -6.7509  -21.1179 C   0  0  0  0  0  0  0  0  0  0  0  0
   59.0783   -6.0698  -21.2148 C   0  0  0  0  0  0  0  0  0  0  0  0
   58.9911   -4.7149  -20.5569 C   0  0  0  0  0  0  0  0  0  0  0  0
   60.1891   -8.0822  -20.6412 N   0  0  0  0  0  0  0  0  0  0  0  0
   58.8773   -8.5620  -20.5087 C   0  0  0  0  0  0  0  0  0  0  0  0
   58.9832  -10.1037  -20.4761 C   0  0  0  0  0  0  0  0  0  0  0  0
   59.8580  -10.5719  -19.3456 C   0  0  0  0  0  0  0  0  0  0  0  0
   60.4630   -9.4145  -18.5772 C   0  0  0  0  0  0  0  0  0  0  0  0
   61.0892   -8.4719  -19.5838 C   0  0  0  0  0  0  0  0  0  0  0  0
   55.3910   -4.5918   -8.6862 C   0  0  0  0  0  0  0  0  0  0  0  0
   55.6562   -4.3100   -9.9350 N   0  0  0  0  0  0  0  0  0  0  0  0
   56.8806   -4.4360  -10.3876 C   0  0  0  0  0  0  0  0  0  0  0  0
   57.8274   -4.8694   -9.4929 C   0  0  0  0  0  0  0  0  0  0  0  0
   56.9085   -5.0658   -8.0677 S   0  0  0  0  0  0  0  0  0  0  0  0
   51.6452   -4.1909   -6.6514 C   0  0  0  0  0  0  0  0  0  0  0  0
   51.9618   -3.4067   -7.7438 C   0  0  0  0  0  0  0  0  0  0  0  0
   53.1686   -3.5539   -8.3958 C   0  0  0  0  0  0  0  0  0  0  0  0
   54.0865   -4.4893   -7.9715 C   0  0  0  0  0  0  0  0  0  0  0  0
   53.8118   -5.2775   -6.9050 C   0  0  0  0  0  0  0  0  0  0  0  0
   52.6052   -5.1154   -6.2682 C   0  0  0  0  0  0  0  0  0  0  0  0
   47.3848   -2.7269   -4.6757 C   0  0  0  0  0  0  0  0  0  0  0  0
   48.9045   -2.8348   -4.6868 C   0  0  0  0  0  0  0  0  0  0  0  0
   49.4014   -3.0598   -6.0928 C   0  0  0  0  0  0  0  0  0  0  0  0
   50.4043   -4.0774   -5.9429 N   0  0  0  0  0  0  0  0  0  0  0  0
   49.9535   -4.9901   -4.9170 C   0  0  0  0  0  0  0  0  0  0  0  0
   49.3752   -4.0157   -3.8903 C   0  0  0  0  0  0  0  0  0  0  0  0
   48.3883   -4.6590   -3.1815 O   0  0  0  0  0  0  0  0  0  0  0  0
   48.2159   -4.1567   -2.3507 H   0  0  0  0  0  0  0  0  0  0  0  0
 36 37  1  0  0  0
 37 38  1  0  0  0
 38 39  1  0  0  0
 39 40  1  0  0  0
 40 41  1  0  0  0
 41 42  1  0  0  0
 39 30  1  0  0  0
 30 31  2  0  0  0
 31 32  1  0  0  0
 32 33  2  0  0  0
 33 34  1  0  0  0
 34 35  2  0  0  0
 33 25  1  0  0  0
 25 26  2  0  0  0
 26 27  1  0  0  0
 27 28  2  0  0  0
 28 29  1  0  0  0
 27  1  1  0  0  0
  1  2  2  0  0  0
  2  3  1  0  0  0
  3  4  2  0  0  0
  4  5  1  0  0  0
  5  6  2  0  0  0
  4  7  1  0  0  0
  7  8  1  0  0  0
  8  9  1  0  0  0
  9 10  1  0  0  0
 10 11  1  0  0  0
 11 12  1  0  0  0
 10 13  1  0  0  0
 13 14  1  0  0  0
 14 15  1  0  0  0
 15 16  1  0  0  0
 16 17  1  0  0  0
 17 18  1  0  0  0
 16 19  1  0  0  0
 19 20  1  0  0  0
 20 21  1  0  0  0
 21 22  1  0  0  0
 22 23  1  0  0  0
 23 24  1  0  0  0
 41 37  1  0  0  0
 35 30  1  0  0  0
 29 25  1  0  0  0
  6  1  1  0  0  0
 12  7  1  0  0  0
 18 13  1  0  0  0
 24 19  1  0  0  0
 42 43  1  0  0  0
M  END
> <minimizedAffinity>
-10.16504

> <CNNscore>
0.2551698089

> <CNNaffinity>
6.5250182152

> <CNN_VS>
1.6649876833

> <CNNaffinity_variance>
0.0567854345

$$$$
[H]O[C@@]1([H])C([H])([H])N(c2c([H])c([H])c(-c3nc(-c4c([H])c([H])c(N5C([H])([H])C([H])([H])C([H])(N6C([H])([H])C([H])([H])C([H])(N7C([H])([H])C([H])([H])C([H])([H])C([H])([H])C7([H])[H])C([H])([H])C6([H])[H])C([H])([H])C5([H])[H])c([H])c4[H])c([H])s3)c([H])c2[H])C([H])([H])[C@@]1([H])C([H])([H])[H]


 43 49  0  0  0  0  0  0  0  0999 V2000
   58.5270   -5.3971   -9.6046 C   0  0  0  0  0  0  0  0  0  0  0  0
   58.9162   -5.7707   -8.3561 C   0  0  0  0  0  0  0  0  0  0  0  0
   60.1915   -6.3034   -8.1142 C   0  0  0  0  0  0  0  0  0  0  0  0
   61.0890   -6.4627   -9.1474 C   0  0  0  0  0  0  0  0  0  0  0  0
   60.6962   -6.0857  -10.4090 C   0  0  0  0  0  0  0  0  0  0  0  0
   59.4304   -5.5606  -10.6319 C   0  0  0  0  0  0  0  0  0  0  0  0
   62.3755   -7.0113   -8.9250 N   0  0  0  0  0  0  0  0  0  0  0  0
   63.5818   -6.3922   -9.4005 C   0  0  0  0  0  0  0  0  0  0  0  0
   64.4629   -6.1003   -8.1982 C   0  0  0  0  0  0  0  0  0  0  0  0
   64.6715   -7.3731   -7.4168 C   0  0  0  0  0  0  0  0  0  0  0  0
   63.3185   -7.9399   -6.9544 C   0  0  0  0  0  0  0  0  0  0  0  0
   62.5149   -8.2507   -8.2105 C   0  0  0  0  0  0  0  0  0  0  0  0
   65.5927   -7.2658   -6.3648 N   0  0  0  0  0  0  0  0  0  0  0  0
   66.2583   -6.0228   -6.1964 C   0  0  0  0  0  0  0  0  0  0  0  0
   66.8466   -5.8488   -4.8239 C   0  0  0  0  0  0  0  0  0  0  0  0
   66.9034   -7.0447   -3.9628 C   0  0  0  0  0  0  0  0  0  0  0  0
   66.7664   -8.3762   -4.6220 C   0  0  0  0  0  0  0  0  0  0  0  0
   66.4722   -8.3453   -6.1014 C   0  0  0  0  0  0  0  0  0  0  0  0
   66.0687   -7.0298   -2.8017 N   0  0  0  0  0  0  0  0  0  0  0  0
   66.6003   -7.4379   -1.5690 C   0  0  0  0  0  0  0  0  0  0  0  0
   65.6712   -6.8496   -0.4828 C   0  0  0  0  0  0  0  0  0  0  0  0
   64.2537   -7.3224   -0.6553 C   0  0  0  0  0  0  0  0  0  0  0  0
   64.0898   -8.1929   -1.8846 C   0  0  0  0  0  0  0  0  0  0  0  0
   64.7155   -7.4604   -3.0533 C   0  0  0  0  0  0  0  0  0  0  0  0
   55.0466   -4.2923   -9.3193 C   0  0  0  0  0  0  0  0  0  0  0  0
   56.2055   -4.8068   -9.0007 N   0  0  0  0  0  0  0  0  0  0  0  0
   57.1854   -4.8003   -9.8722 C   0  0  0  0  0  0  0  0  0  0  0  0
   56.9195   -4.2356  -11.0951 C   0  0  0  0  0  0  0  0  0  0  0  0
   55.2910   -3.7545  -10.9197 S   0  0  0  0  0  0  0  0  0  0  0  0
   51.4922   -3.9915   -6.9512 C   0  0  0  0  0  0  0  0  0  0  0  0
   51.8028   -3.0482   -7.9116 C   0  0  0  0  0  0  0  0  0  0  0  0
   52.9466   -3.1635   -8.6742 C   0  0  0  0  0  0  0  0  0  0  0  0
   53.8060   -4.2251   -8.4951 C   0  0  0  0  0  0  0  0  0  0  0  0
   53.5351   -5.1706   -7.5642 C   0  0  0  0  0  0  0  0  0  0  0  0
   52.3918   -5.0380   -6.8139 C   0  0  0  0  0  0  0  0  0  0  0  0
   47.4108   -2.6422   -4.5600 C   0  0  0  0  0  0  0  0  0  0  0  0
   48.9243   -2.7404   -4.7039 C   0  0  0  0  0  0  0  0  0  0  0  0
   49.3011   -2.8998   -6.1554 C   0  0  0  0  0  0  0  0  0  0  0  0
   50.3154   -3.9170   -6.1363 N   0  0  0  0  0  0  0  0  0  0  0  0
   49.9548   -4.8771   -5.1180 C   0  0  0  0  0  0  0  0  0  0  0  0
   49.4632   -3.9528   -4.0036 C   0  0  0  0  0  0  0  0  0  0  0  0
   48.5410   -4.6328   -3.2436 O   0  0  0  0  0  0  0  0  0  0  0  0
   48.4384   -4.1690   -2.3796 H   0  0  0  0  0  0  0  0  0  0  0  0
 36 37  1  0  0  0
 37 38  1  0  0  0
 38 39  1  0  0  0
 39 40  1  0  0  0
 40 41  1  0  0  0
 41 42  1  0  0  0
 39 30  1  0  0  0
 30 31  2  0  0  0
 31 32  1  0  0  0
 32 33  2  0  0  0
 33 34  1  0  0  0
 34 35  2  0  0  0
 33 25  1  0  0  0
 25 26  2  0  0  0
 26 27  1  0  0  0
 27 28  2  0  0  0
 28 29  1  0  0  0
 27  1  1  0  0  0
  1  2  2  0  0  0
  2  3  1  0  0  0
  3  4  2  0  0  0
  4  5  1  0  0  0
  5  6  2  0  0  0
  4  7  1  0  0  0
  7  8  1  0  0  0
  8  9  1  0  0  0
  9 10  1  0  0  0
 10 11  1  0  0  0
 11 12  1  0  0  0
 10 13  1  0  0  0
 13 14  1  0  0  0
 14 15  1  0  0  0
 15 16  1  0  0  0
 16 17  1  0  0  0
 17 18  1  0  0  0
 16 19  1  0  0  0
 19 20  1  0  0  0
 20 21  1  0  0  0
 21 22  1  0  0  0
 22 23  1  0  0  0
 23 24  1  0  0  0
 41 37  1  0  0  0
 35 30  1  0  0  0
 29 25  1  0  0  0
  6  1  1  0  0  0
 12  7  1  0  0  0
 18 13  1  0  0  0
 24 19  1  0  0  0
 42 43  1  0  0  0
M  END
> <minimizedAffinity>
-8.75240

> <CNNscore>
0.2395849526

> <CNNaffinity>
6.3620500565

> <CNN_VS>
1.5242514610

> <CNNaffinity_variance>
0.0343419537

$$$$
[H]O[C@@]1([H])C([H])([H])N(c2c([H])c([H])c(-c3nc(-c4c([H])c([H])c(N5C([H])([H])C([H])([H])C([H])(N6C([H])([H])C([H])([H])C([H])(N7C([H])([H])C([H])([H])C([H])([H])C([H])([H])C7([H])[H])C([H])([H])C6([H])[H])C([H])([H])C5([H])[H])c([H])c4[H])c([H])s3)c([H])c2[H])C([H])([H])[C@@]1([H])C([H])([H])[H]


 43 49  0  0  0  0  0  0  0  0999 V2000
   57.1436   -4.1194  -11.9905 C   0  0  0  0  0  0  0  0  0  0  0  0
   58.4274   -3.9077  -12.3867 C   0  0  0  0  0  0  0  0  0  0  0  0
   58.7431   -3.6071  -13.7203 C   0  0  0  0  0  0  0  0  0  0  0  0
   57.7492   -3.5189  -14.6703 C   0  0  0  0  0  0  0  0  0  0  0  0
   56.4520   -3.7329  -14.2707 C   0  0  0  0  0  0  0  0  0  0  0  0
   56.1560   -4.0300  -12.9471 C   0  0  0  0  0  0  0  0  0  0  0  0
   58.0499   -3.2301  -16.0237 N   0  0  0  0  0  0  0  0  0  0  0  0
   58.9876   -2.2147  -16.4163 C   0  0  0  0  0  0  0  0  0  0  0  0
   60.0830   -2.8798  -17.2316 C   0  0  0  0  0  0  0  0  0  0  0  0
   59.4576   -3.6384  -18.3750 C   0  0  0  0  0  0  0  0  0  0  0  0
   58.4818   -4.6991  -17.8377 C   0  0  0  0  0  0  0  0  0  0  0  0
   57.3923   -3.9547  -17.0767 C   0  0  0  0  0  0  0  0  0  0  0  0
   60.3761   -4.1732  -19.2900 N   0  0  0  0  0  0  0  0  0  0  0  0
   61.0599   -3.2669  -20.1429 C   0  0  0  0  0  0  0  0  0  0  0  0
   62.3139   -3.8458  -20.7364 C   0  0  0  0  0  0  0  0  0  0  0  0
   62.5137   -5.3000  -20.5930 C   0  0  0  0  0  0  0  0  0  0  0  0
   61.3210   -6.1295  -20.2533 C   0  0  0  0  0  0  0  0  0  0  0  0
   60.0487   -5.3647  -19.9839 C   0  0  0  0  0  0  0  0  0  0  0  0
   63.5999   -5.7112  -19.7587 N   0  0  0  0  0  0  0  0  0  0  0  0
   63.7180   -7.0632  -19.4027 C   0  0  0  0  0  0  0  0  0  0  0  0
   65.1854   -7.2663  -18.9615 C   0  0  0  0  0  0  0  0  0  0  0  0
   65.5464   -6.3611  -17.8157 C   0  0  0  0  0  0  0  0  0  0  0  0
   64.4051   -5.4388  -17.4377 C   0  0  0  0  0  0  0  0  0  0  0  0
   63.9108   -4.7754  -18.7063 C   0  0  0  0  0  0  0  0  0  0  0  0
   55.3450   -4.5392   -8.8276 C   0  0  0  0  0  0  0  0  0  0  0  0
   55.5728   -4.2988  -10.0923 N   0  0  0  0  0  0  0  0  0  0  0  0
   56.7891   -4.4093  -10.5700 C   0  0  0  0  0  0  0  0  0  0  0  0
   57.7684   -4.7826   -9.6830 C   0  0  0  0  0  0  0  0  0  0  0  0
   56.8893   -4.9484   -8.2292 S   0  0  0  0  0  0  0  0  0  0  0  0
   51.6413   -4.1595   -6.7133 C   0  0  0  0  0  0  0  0  0  0  0  0
   51.9322   -3.3700   -7.8090 C   0  0  0  0  0  0  0  0  0  0  0  0
   53.1256   -3.5104   -8.4866 C   0  0  0  0  0  0  0  0  0  0  0  0
   54.0555   -4.4442   -8.0853 C   0  0  0  0  0  0  0  0  0  0  0  0
   53.8060   -5.2374   -7.0164 C   0  0  0  0  0  0  0  0  0  0  0  0
   52.6124   -5.0821   -6.3538 C   0  0  0  0  0  0  0  0  0  0  0  0
   47.4196   -2.7175   -4.6409 C   0  0  0  0  0  0  0  0  0  0  0  0
   48.9389   -2.8216   -4.6842 C   0  0  0  0  0  0  0  0  0  0  0  0
   49.4070   -3.0372   -6.1015 C   0  0  0  0  0  0  0  0  0  0  0  0
   50.4152   -4.0532   -5.9785 N   0  0  0  0  0  0  0  0  0  0  0  0
   49.9879   -4.9729   -4.9488 C   0  0  0  0  0  0  0  0  0  0  0  0
   49.4288   -4.0060   -3.9046 C   0  0  0  0  0  0  0  0  0  0  0  0
   48.4584   -4.6558   -3.1792 O   0  0  0  0  0  0  0  0  0  0  0  0
   48.3022   -4.1587   -2.3420 H   0  0  0  0  0  0  0  0  0  0  0  0
 36 37  1  0  0  0
 37 38  1  0  0  0
 38 39  1  0  0  0
 39 40  1  0  0  0
 40 41  1  0  0  0
 41 42  1  0  0  0
 39 30  1  0  0  0
 30 31  2  0  0  0
 31 32  1  0  0  0
 32 33  2  0  0  0
 33 34  1  0  0  0
 34 35  2  0  0  0
 33 25  1  0  0  0
 25 26  2  0  0  0
 26 27  1  0  0  0
 27 28  2  0  0  0
 28 29  1  0  0  0
 27  1  1  0  0  0
  1  2  2  0  0  0
  2  3  1  0  0  0
  3  4  2  0  0  0
  4  5  1  0  0  0
  5  6  2  0  0  0
  4  7  1  0  0  0
  7  8  1  0  0  0
  8  9  1  0  0  0
  9 10  1  0  0  0
 10 11  1  0  0  0
 11 12  1  0  0  0
 10 13  1  0  0  0
 13 14  1  0  0  0
 14 15  1  0  0  0
 15 16  1  0  0  0
 16 17  1  0  0  0
 17 18  1  0  0  0
 16 19  1  0  0  0
 19 20  1  0  0  0
 20 21  1  0  0  0
 21 22  1  0  0  0
 22 23  1  0  0  0
 23 24  1  0  0  0
 41 37  1  0  0  0
 35 30  1  0  0  0
 29 25  1  0  0  0
  6  1  1  0  0  0
 12  7  1  0  0  0
 18 13  1  0  0  0
 24 19  1  0  0  0
 42 43  1  0  0  0
M  END
> <minimizedAffinity>
-9.91882

> <CNNscore>
0.2277422398

> <CNNaffinity>
6.4641723633

> <CNN_VS>
1.4721651077

> <CNNaffinity_variance>
0.0485932902

$$$$
[H]O[C@@]1([H])C([H])([H])N(c2c([H])c([H])c(-c3nc(-c4c([H])c([H])c(N5C([H])([H])C([H])([H])C([H])(N6C([H])([H])C([H])([H])C([H])(N7C([H])([H])C([H])([H])C([H])([H])C([H])([H])C7([H])[H])C([H])([H])C6([H])[H])C([H])([H])C5([H])[H])c([H])c4[H])c([H])s3)c([H])c2[H])C([H])([H])[C@@]1([H])C([H])([H])[H]


 43 49  0  0  0  0  0  0  0  0999 V2000
   56.2303   -5.5621   -6.7924 C   0  0  0  0  0  0  0  0  0  0  0  0
   54.8862   -5.6739   -6.9687 C   0  0  0  0  0  0  0  0  0  0  0  0
   54.0086   -5.7648   -5.8777 C   0  0  0  0  0  0  0  0  0  0  0  0
   54.4932   -5.7431   -4.5882 C   0  0  0  0  0  0  0  0  0  0  0  0
   55.8509   -5.6304   -4.4095 C   0  0  0  0  0  0  0  0  0  0  0  0
   56.7062   -5.5420   -5.4996 C   0  0  0  0  0  0  0  0  0  0  0  0
   53.6242   -5.8476   -3.4749 N   0  0  0  0  0  0  0  0  0  0  0  0
   52.6613   -6.9044   -3.3316 C   0  0  0  0  0  0  0  0  0  0  0  0
   52.9718   -7.6487   -2.0446 C   0  0  0  0  0  0  0  0  0  0  0  0
   53.0067   -6.6665   -0.9009 C   0  0  0  0  0  0  0  0  0  0  0  0
   54.0743   -5.5896   -1.1585 C   0  0  0  0  0  0  0  0  0  0  0  0
   53.6695   -4.8591   -2.4323 C   0  0  0  0  0  0  0  0  0  0  0  0
   53.1356   -7.2533    0.3664 N   0  0  0  0  0  0  0  0  0  0  0  0
   53.0062   -8.6645    0.4550 C   0  0  0  0  0  0  0  0  0  0  0  0
   53.6015   -9.2347    1.7123 C   0  0  0  0  0  0  0  0  0  0  0  0
   53.9703   -8.2782    2.7725 C   0  0  0  0  0  0  0  0  0  0  0  0
   53.3747   -6.9118    2.7061 C   0  0  0  0  0  0  0  0  0  0  0  0
   52.5361   -6.6235    1.4854 C   0  0  0  0  0  0  0  0  0  0  0  0
   55.3671   -8.1469    3.0496 N   0  0  0  0  0  0  0  0  0  0  0  0
   56.0381   -6.9794    2.6553 C   0  0  0  0  0  0  0  0  0  0  0  0
   57.3281   -6.9159    3.5044 C   0  0  0  0  0  0  0  0  0  0  0  0
   58.1819   -8.1375    3.3014 C   0  0  0  0  0  0  0  0  0  0  0  0
   57.5268   -9.1420    2.3753 C   0  0  0  0  0  0  0  0  0  0  0  0
   56.1128   -9.3679    2.8685 C   0  0  0  0  0  0  0  0  0  0  0  0
   57.6921   -4.9352  -10.0916 C   0  0  0  0  0  0  0  0  0  0  0  0
   56.8157   -4.9895   -9.1230 N   0  0  0  0  0  0  0  0  0  0  0  0
   57.1733   -5.4333   -7.9420 C   0  0  0  0  0  0  0  0  0  0  0  0
   58.4828   -5.8206   -7.7992 C   0  0  0  0  0  0  0  0  0  0  0  0
   59.1138   -5.5275   -9.3581 S   0  0  0  0  0  0  0  0  0  0  0  0
   57.1840   -3.6012  -14.1282 C   0  0  0  0  0  0  0  0  0  0  0  0
   58.4326   -3.6676  -13.5407 C   0  0  0  0  0  0  0  0  0  0  0  0
   58.5822   -4.1090  -12.2423 C   0  0  0  0  0  0  0  0  0  0  0  0
   57.4871   -4.4954  -11.5014 C   0  0  0  0  0  0  0  0  0  0  0  0
   56.2468   -4.4455  -12.0430 C   0  0  0  0  0  0  0  0  0  0  0  0
   56.1180   -4.0022  -13.3371 C   0  0  0  0  0  0  0  0  0  0  0  0
   55.4695   -2.6418  -18.6379 C   0  0  0  0  0  0  0  0  0  0  0  0
   56.1967   -3.5174  -17.6251 C   0  0  0  0  0  0  0  0  0  0  0  0
   55.7534   -3.1740  -16.2251 C   0  0  0  0  0  0  0  0  0  0  0  0
   56.9777   -3.1524  -15.4738 N   0  0  0  0  0  0  0  0  0  0  0  0
   58.0063   -2.6018  -16.3268 C   0  0  0  0  0  0  0  0  0  0  0  0
   57.6773   -3.2782  -17.6580 C   0  0  0  0  0  0  0  0  0  0  0  0
   58.1038   -2.4649  -18.6812 O   0  0  0  0  0  0  0  0  0  0  0  0
   58.1634   -2.9996  -19.5075 H   0  0  0  0  0  0  0  0  0  0  0  0
 36 37  1  0  0  0
 37 38  1  0  0  0
 38 39  1  0  0  0
 39 40  1  0  0  0
 40 41  1  0  0  0
 41 42  1  0  0  0
 39 30  1  0  0  0
 30 31  2  0  0  0
 31 32  1  0  0  0
 32 33  2  0  0  0
 33 34  1  0  0  0
 34 35  2  0  0  0
 33 25  1  0  0  0
 25 26  2  0  0  0
 26 27  1  0  0  0
 27 28  2  0  0  0
 28 29  1  0  0  0
 27  1  1  0  0  0
  1  2  2  0  0  0
  2  3  1  0  0  0
  3  4  2  0  0  0
  4  5  1  0  0  0
  5  6  2  0  0  0
  4  7  1  0  0  0
  7  8  1  0  0  0
  8  9  1  0  0  0
  9 10  1  0  0  0
 10 11  1  0  0  0
 11 12  1  0  0  0
 10 13  1  0  0  0
 13 14  1  0  0  0
 14 15  1  0  0  0
 15 16  1  0  0  0
 16 17  1  0  0  0
 17 18  1  0  0  0
 16 19  1  0  0  0
 19 20  1  0  0  0
 20 21  1  0  0  0
 21 22  1  0  0  0
 22 23  1  0  0  0
 23 24  1  0  0  0
 41 37  1  0  0  0
 35 30  1  0  0  0
 29 25  1  0  0  0
  6  1  1  0  0  0
 12  7  1  0  0  0
 18 13  1  0  0  0
 24 19  1  0  0  0
 42 43  1  0  0  0
M  END
> <minimizedAffinity>
-7.03081

> <CNNscore>
0.2213034928

> <CNNaffinity>
6.4863891602

> <CNN_VS>
1.4354605675

> <CNNaffinity_variance>
0.0650374070

$$$$
[H]O[C@@]1([H])C([H])([H])N(c2c([H])c([H])c(-c3nc(-c4c([H])c([H])c(N5C([H])([H])C([H])([H])C([H])(N6C([H])([H])C([H])([H])C([H])(N7C([H])([H])C([H])([H])C([H])([H])C([H])([H])C7([H])[H])C([H])([H])C6([H])[H])C([H])([H])C5([H])[H])c([H])c4[H])c([H])s3)c([H])c2[H])C([H])([H])[C@@]1([H])C([H])([H])[H]


 43 49  0  0  0  0  0  0  0  0999 V2000
   57.3589   -4.7090   -9.9502 C   0  0  0  0  0  0  0  0  0  0  0  0
   58.1018   -5.2499   -8.9474 C   0  0  0  0  0  0  0  0  0  0  0  0
   57.5281   -5.5962   -7.7146 C   0  0  0  0  0  0  0  0  0  0  0  0
   56.1841   -5.3937   -7.4886 C   0  0  0  0  0  0  0  0  0  0  0  0
   55.4333   -4.8471   -8.5012 C   0  0  0  0  0  0  0  0  0  0  0  0
   56.0161   -4.5093   -9.7153 C   0  0  0  0  0  0  0  0  0  0  0  0
   55.5901   -5.7242   -6.2462 N   0  0  0  0  0  0  0  0  0  0  0  0
   55.1786   -7.0584   -5.9071 C   0  0  0  0  0  0  0  0  0  0  0  0
   55.9348   -7.4779   -4.6584 C   0  0  0  0  0  0  0  0  0  0  0  0
   55.7095   -6.4528   -3.5756 C   0  0  0  0  0  0  0  0  0  0  0  0
   56.1920   -5.0699   -4.0452 C   0  0  0  0  0  0  0  0  0  0  0  0
   55.3583   -4.6996   -5.2650 C   0  0  0  0  0  0  0  0  0  0  0  0
   56.2342   -6.8042   -2.3234 N   0  0  0  0  0  0  0  0  0  0  0  0
   57.0954   -5.8728   -1.6853 C   0  0  0  0  0  0  0  0  0  0  0  0
   57.2287   -6.1084   -0.2065 C   0  0  0  0  0  0  0  0  0  0  0  0
   56.7031   -7.3822    0.3191 C   0  0  0  0  0  0  0  0  0  0  0  0
   56.4619   -8.4839   -0.6577 C   0  0  0  0  0  0  0  0  0  0  0  0
   56.6827   -8.1311   -2.1079 C   0  0  0  0  0  0  0  0  0  0  0  0
   55.5674   -7.2907    1.1832 N   0  0  0  0  0  0  0  0  0  0  0  0
   54.4437   -8.0909    0.9268 C   0  0  0  0  0  0  0  0  0  0  0  0
   53.6435   -8.1467    2.2481 C   0  0  0  0  0  0  0  0  0  0  0  0
   53.2467   -6.7714    2.7102 C   0  0  0  0  0  0  0  0  0  0  0  0
   53.7915   -5.6870    1.8029 C   0  0  0  0  0  0  0  0  0  0  0  0
   55.2716   -5.9464    1.6138 C   0  0  0  0  0  0  0  0  0  0  0  0
   57.8163   -3.7926  -13.4667 C   0  0  0  0  0  0  0  0  0  0  0  0
   57.2288   -4.0516  -12.3279 N   0  0  0  0  0  0  0  0  0  0  0  0
   57.9486   -4.3644  -11.2773 C   0  0  0  0  0  0  0  0  0  0  0  0
   59.3102   -4.3978  -11.4503 C   0  0  0  0  0  0  0  0  0  0  0  0
   59.4711   -3.9833  -13.0984 S   0  0  0  0  0  0  0  0  0  0  0  0
   55.9298   -2.8697  -17.1979 C   0  0  0  0  0  0  0  0  0  0  0  0
   55.1939   -3.0695  -16.0458 C   0  0  0  0  0  0  0  0  0  0  0  0
   55.8161   -3.3563  -14.8484 C   0  0  0  0  0  0  0  0  0  0  0  0
   57.1885   -3.4490  -14.7747 C   0  0  0  0  0  0  0  0  0  0  0  0
   57.9442   -3.2585  -15.8823 C   0  0  0  0  0  0  0  0  0  0  0  0
   57.3063   -2.9747  -17.0657 C   0  0  0  0  0  0  0  0  0  0  0  0
   53.7012   -0.7844  -21.0555 C   0  0  0  0  0  0  0  0  0  0  0  0
   53.6892   -1.5174  -19.7200 C   0  0  0  0  0  0  0  0  0  0  0  0
   54.9795   -1.2724  -18.9788 C   0  0  0  0  0  0  0  0  0  0  0  0
   55.3301   -2.5670  -18.4641 N   0  0  0  0  0  0  0  0  0  0  0  0
   54.9535   -3.5497  -19.4546 C   0  0  0  0  0  0  0  0  0  0  0  0
   53.6007   -3.0027  -19.9117 C   0  0  0  0  0  0  0  0  0  0  0  0
   53.3816   -3.4010  -21.2093 O   0  0  0  0  0  0  0  0  0  0  0  0
   52.4208   -3.3093  -21.4111 H   0  0  0  0  0  0  0  0  0  0  0  0
 36 37  1  0  0  0
 37 38  1  0  0  0
 38 39  1  0  0  0
 39 40  1  0  0  0
 40 41  1  0  0  0
 41 42  1  0  0  0
 39 30  1  0  0  0
 30 31  2  0  0  0
 31 32  1  0  0  0
 32 33  2  0  0  0
 33 34  1  0  0  0
 34 35  2  0  0  0
 33 25  1  0  0  0
 25 26  2  0  0  0
 26 27  1  0  0  0
 27 28  2  0  0  0
 28 29  1  0  0  0
 27  1  1  0  0  0
  1  2  2  0  0  0
  2  3  1  0  0  0
  3  4  2  0  0  0
  4  5  1  0  0  0
  5  6  2  0  0  0
  4  7  1  0  0  0
  7  8  1  0  0  0
  8  9  1  0  0  0
  9 10  1  0  0  0
 10 11  1  0  0  0
 11 12  1  0  0  0
 10 13  1  0  0  0
 13 14  1  0  0  0
 14 15  1  0  0  0
 15 16  1  0  0  0
 16 17  1  0  0  0
 17 18  1  0  0  0
 16 19  1  0  0  0
 19 20  1  0  0  0
 20 21  1  0  0  0
 21 22  1  0  0  0
 22 23  1  0  0  0
 23 24  1  0  0  0
 41 37  1  0  0  0
 35 30  1  0  0  0
 29 25  1  0  0  0
  6  1  1  0  0  0
 12  7  1  0  0  0
 18 13  1  0  0  0
 24 19  1  0  0  0
 42 43  1  0  0  0
M  END
> <minimizedAffinity>
-6.82861

> <CNNscore>
0.2155570090

> <CNNaffinity>
6.0905265808

> <CNN_VS>
1.3128557205

> <CNNaffinity_variance>
0.0656640902

$$$$
[H]c1nc(N2C([H])([H])C([H])([H])N(C(=O)c3c([H])c([H])c([H])c(C(F)(F)F)c3[H])C([H])([H])C2([H])[H])c2c([H])c(OC([H])([H])[H])c(OC([H])([H])[H])c([H])c2n1


 32 35  0  0  0  0  0  0  0  0999 V2000
   52.8069   -4.8203   -7.4781 N   0  0  0  0  0  0  0  0  0  0  0  0
   53.9814   -4.8040   -8.3122 C   0  0  0  0  0  0  0  0  0  0  0  0
   55.2353   -4.9131   -7.4866 C   0  0  0  0  0  0  0  0  0  0  0  0
   55.1289   -6.0007   -6.4639 N   0  0  0  0  0  0  0  0  0  0  0  0
   53.9475   -6.7908   -6.5519 C   0  0  0  0  0  0  0  0  0  0  0  0
   52.6685   -5.9724   -6.5813 C   0  0  0  0  0  0  0  0  0  0  0  0
   56.2424   -6.0578   -5.6290 C   0  0  0  0  0  0  0  0  0  0  0  0
   57.1399   -5.1192   -5.9521 O   0  0  0  0  0  0  0  0  0  0  0  0
   48.8220   -3.6487   -4.4130 C   0  0  0  0  0  0  0  0  0  0  0  0
   48.9523   -2.7013   -5.4128 C   0  0  0  0  0  0  0  0  0  0  0  0
   49.9388   -2.7159   -6.3606 C   0  0  0  0  0  0  0  0  0  0  0  0
   49.9922   -1.8043   -7.3393 N   0  0  0  0  0  0  0  0  0  0  0  0
   50.9127   -1.8261   -8.3121 C   0  0  0  0  0  0  0  0  0  0  0  0
   51.8116   -2.8154   -8.2819 N   0  0  0  0  0  0  0  0  0  0  0  0
   51.8466   -3.8031   -7.3185 C   0  0  0  0  0  0  0  0  0  0  0  0
   50.9046   -3.7457   -6.3526 C   0  0  0  0  0  0  0  0  0  0  0  0
   50.8042   -4.7043   -5.3606 C   0  0  0  0  0  0  0  0  0  0  0  0
   49.7951   -4.6723   -4.4105 C   0  0  0  0  0  0  0  0  0  0  0  0
   46.5298   -3.9850   -3.4423 C   0  0  0  0  0  0  0  0  0  0  0  0
   47.8776   -3.6846   -3.4736 O   0  0  0  0  0  0  0  0  0  0  0  0
   49.6975   -5.6177   -3.4426 O   0  0  0  0  0  0  0  0  0  0  0  0
   50.7319   -5.9742   -2.5690 C   0  0  0  0  0  0  0  0  0  0  0  0
   56.6689   -6.8502   -4.5388 C   0  0  0  0  0  0  0  0  0  0  0  0
   55.6557   -7.3742   -3.6939 C   0  0  0  0  0  0  0  0  0  0  0  0
   55.9880   -8.1719   -2.6153 C   0  0  0  0  0  0  0  0  0  0  0  0
   57.2549   -8.4859   -2.3149 C   0  0  0  0  0  0  0  0  0  0  0  0
   58.3026   -8.0101   -3.1044 C   0  0  0  0  0  0  0  0  0  0  0  0
   57.9336   -7.2144   -4.1733 C   0  0  0  0  0  0  0  0  0  0  0  0
   59.6802   -8.3588   -2.7608 C   0  0  0  0  0  0  0  0  0  0  0  0
   60.5420   -7.2739   -2.9237 F   0  0  0  0  0  0  0  0  0  0  0  0
   59.7429   -8.6621   -1.3854 F   0  0  0  0  0  0  0  0  0  0  0  0
   60.1739   -9.4532   -3.4437 F   0  0  0  0  0  0  0  0  0  0  0  0
 19 20  1  0  0  0
 20  9  1  0  0  0
  9 10  2  0  0  0
 10 11  1  0  0  0
 11 12  2  0  0  0
 12 13  1  0  0  0
 13 14  2  0  0  0
 14 15  1  0  0  0
 15  1  1  0  0  0
  1  2  1  0  0  0
  2  3  1  0  0  0
  3  4  1  0  0  0
  4  5  1  0  0  0
  5  6  1  0  0  0
  4  7  1  0  0  0
  7  8  2  0  0  0
  7 23  1  0  0  0
 23 24  2  0  0  0
 24 25  1  0  0  0
 25 26  2  0  0  0
 26 27  1  0  0  0
 27 28  2  0  0  0
 27 29  1  0  0  0
 29 30  1  0  0  0
 29 31  1  0  0  0
 29 32  1  0  0  0
 15 16  2  0  0  0
 16 17  1  0  0  0
 17 18  2  0  0  0
 18 21  1  0  0  0
 21 22  1  0  0  0
 18  9  1  0  0  0
 16 11  1  0  0  0
  6  1  1  0  0  0
 28 23  1  0  0  0
M  END
> <minimizedAffinity>
-8.26923

> <CNNscore>
0.4195821285

> <CNNaffinity>
6.6306290627

> <CNN_VS>
2.7820935249

> <CNNaffinity_variance>
0.0724952668

$$$$
[H]c1nc(N2C([H])([H])C([H])([H])N(C(=O)c3c([H])c([H])c([H])c(C(F)(F)F)c3[H])C([H])([H])C2([H])[H])c2c([H])c(OC([H])([H])[H])c(OC([H])([H])[H])c([H])c2n1


 32 35  0  0  0  0  0  0  0  0999 V2000
   53.1041   -5.6667   -8.1447 N   0  0  0  0  0  0  0  0  0  0  0  0
   54.2772   -5.4477   -8.9517 C   0  0  0  0  0  0  0  0  0  0  0  0
   55.4507   -5.0364   -8.1035 C   0  0  0  0  0  0  0  0  0  0  0  0
   55.5943   -5.9129   -6.8989 N   0  0  0  0  0  0  0  0  0  0  0  0
   54.6999   -7.0201   -6.8550 C   0  0  0  0  0  0  0  0  0  0  0  0
   53.2441   -6.6352   -7.0523 C   0  0  0  0  0  0  0  0  0  0  0  0
   56.6182   -5.4927   -6.0530 C   0  0  0  0  0  0  0  0  0  0  0  0
   57.2261   -4.4010   -6.5321 O   0  0  0  0  0  0  0  0  0  0  0  0
   49.5123   -3.8598   -4.9072 C   0  0  0  0  0  0  0  0  0  0  0  0
   49.1325   -3.6345   -6.2184 C   0  0  0  0  0  0  0  0  0  0  0  0
   49.8928   -3.9675   -7.3060 C   0  0  0  0  0  0  0  0  0  0  0  0
   49.4585   -3.7753   -8.5575 N   0  0  0  0  0  0  0  0  0  0  0  0
   50.1567   -4.1421   -9.6402 C   0  0  0  0  0  0  0  0  0  0  0  0
   51.3422   -4.7252   -9.4353 N   0  0  0  0  0  0  0  0  0  0  0  0
   51.8826   -4.9679   -8.1886 C   0  0  0  0  0  0  0  0  0  0  0  0
   51.1508   -4.5811   -7.1216 C   0  0  0  0  0  0  0  0  0  0  0  0
   51.5608   -4.8134   -5.8212 C   0  0  0  0  0  0  0  0  0  0  0  0
   50.7739   -4.4701   -4.7327 C   0  0  0  0  0  0  0  0  0  0  0  0
   48.7233   -2.4815   -2.9611 C   0  0  0  0  0  0  0  0  0  0  0  0
   48.8074   -3.5631   -3.8161 O   0  0  0  0  0  0  0  0  0  0  0  0
   51.1779   -4.7048   -3.4592 O   0  0  0  0  0  0  0  0  0  0  0  0
   52.5110   -4.6966   -3.0312 C   0  0  0  0  0  0  0  0  0  0  0  0
   57.1809   -5.9225   -4.8296 C   0  0  0  0  0  0  0  0  0  0  0  0
   58.3805   -6.6775   -4.9075 C   0  0  0  0  0  0  0  0  0  0  0  0
   59.0032   -7.1217   -3.7564 C   0  0  0  0  0  0  0  0  0  0  0  0
   58.5193   -6.8707   -2.5330 C   0  0  0  0  0  0  0  0  0  0  0  0
   57.3464   -6.1303   -2.3798 C   0  0  0  0  0  0  0  0  0  0  0  0
   56.7499   -5.7036   -3.5521 C   0  0  0  0  0  0  0  0  0  0  0  0
   56.8292   -5.8683   -1.0377 C   0  0  0  0  0  0  0  0  0  0  0  0
   56.8536   -4.5072   -0.7330 F   0  0  0  0  0  0  0  0  0  0  0  0
   55.4641   -6.2188   -1.0000 F   0  0  0  0  0  0  0  0  0  0  0  0
   57.4621   -6.5814   -0.0384 F   0  0  0  0  0  0  0  0  0  0  0  0
 19 20  1  0  0  0
 20  9  1  0  0  0
  9 10  2  0  0  0
 10 11  1  0  0  0
 11 12  2  0  0  0
 12 13  1  0  0  0
 13 14  2  0  0  0
 14 15  1  0  0  0
 15  1  1  0  0  0
  1  2  1  0  0  0
  2  3  1  0  0  0
  3  4  1  0  0  0
  4  5  1  0  0  0
  5  6  1  0  0  0
  4  7  1  0  0  0
  7  8  2  0  0  0
  7 23  1  0  0  0
 23 24  2  0  0  0
 24 25  1  0  0  0
 25 26  2  0  0  0
 26 27  1  0  0  0
 27 28  2  0  0  0
 27 29  1  0  0  0
 29 30  1  0  0  0
 29 31  1  0  0  0
 29 32  1  0  0  0
 15 16  2  0  0  0
 16 17  1  0  0  0
 17 18  2  0  0  0
 18 21  1  0  0  0
 21 22  1  0  0  0
 18  9  1  0  0  0
 16 11  1  0  0  0
  6  1  1  0  0  0
 28 23  1  0  0  0
M  END
> <minimizedAffinity>
11.79302

> <CNNscore>
0.3845879138

> <CNNaffinity>
6.4530091286

> <CNN_VS>
2.4817492962

> <CNNaffinity_variance>
1.3247314692

$$$$
[H]c1nc(N2C([H])([H])C([H])([H])N(C(=O)c3c([H])c([H])c([H])c(C(F)(F)F)c3[H])C([H])([H])C2([H])[H])c2c([H])c(OC([H])([H])[H])c(OC([H])([H])[H])c([H])c2n1


 32 35  0  0  0  0  0  0  0  0999 V2000
   54.4652   -5.2019   -7.1220 N   0  0  0  0  0  0  0  0  0  0  0  0
   55.8460   -4.9935   -6.7677 C   0  0  0  0  0  0  0  0  0  0  0  0
   56.0372   -5.0444   -5.2755 C   0  0  0  0  0  0  0  0  0  0  0  0
   55.3383   -6.2213   -4.6700 N   0  0  0  0  0  0  0  0  0  0  0  0
   54.7534   -7.1176   -5.6093 C   0  0  0  0  0  0  0  0  0  0  0  0
   53.8497   -6.4352   -6.6211 C   0  0  0  0  0  0  0  0  0  0  0  0
   55.4258   -6.2358   -3.2799 C   0  0  0  0  0  0  0  0  0  0  0  0
   56.1206   -5.1858   -2.8264 O   0  0  0  0  0  0  0  0  0  0  0  0
   49.7393   -3.2110   -6.5315 C   0  0  0  0  0  0  0  0  0  0  0  0
   50.3004   -2.7701   -7.7168 C   0  0  0  0  0  0  0  0  0  0  0  0
   51.5610   -3.0952   -8.1372 C   0  0  0  0  0  0  0  0  0  0  0  0
   52.0403   -2.6846   -9.3176 N   0  0  0  0  0  0  0  0  0  0  0  0
   53.2484   -3.0328   -9.7797 C   0  0  0  0  0  0  0  0  0  0  0  0
   53.9935   -3.8286   -9.0056 N   0  0  0  0  0  0  0  0  0  0  0  0
   53.5959   -4.3061   -7.7731 C   0  0  0  0  0  0  0  0  0  0  0  0
   52.3731   -3.9307   -7.3400 C   0  0  0  0  0  0  0  0  0  0  0  0
   51.8417   -4.3823   -6.1454 C   0  0  0  0  0  0  0  0  0  0  0  0
   50.5606   -4.0427   -5.7388 C   0  0  0  0  0  0  0  0  0  0  0  0
   47.9902   -2.4253   -4.9088 C   0  0  0  0  0  0  0  0  0  0  0  0
   48.5168   -2.9312   -6.0813 O   0  0  0  0  0  0  0  0  0  0  0  0
   50.0417   -4.4923   -4.5689 O   0  0  0  0  0  0  0  0  0  0  0  0
   50.7752   -5.1417   -3.5686 C   0  0  0  0  0  0  0  0  0  0  0  0
   54.9776   -7.0712   -2.2314 C   0  0  0  0  0  0  0  0  0  0  0  0
   55.9508   -7.4900   -1.2867 C   0  0  0  0  0  0  0  0  0  0  0  0
   55.5912   -8.2949   -0.2223 C   0  0  0  0  0  0  0  0  0  0  0  0
   54.3342   -8.7149   -0.0293 C   0  0  0  0  0  0  0  0  0  0  0  0
   53.3240   -8.3385   -0.9155 C   0  0  0  0  0  0  0  0  0  0  0  0
   53.7199   -7.5348   -1.9687 C   0  0  0  0  0  0  0  0  0  0  0  0
   51.9576   -8.8086   -0.6930 C   0  0  0  0  0  0  0  0  0  0  0  0
   51.1865   -7.8544   -0.0289 F   0  0  0  0  0  0  0  0  0  0  0  0
   51.3246   -8.9739   -1.9419 F   0  0  0  0  0  0  0  0  0  0  0  0
   51.8762  -10.0176   -0.0303 F   0  0  0  0  0  0  0  0  0  0  0  0
 19 20  1  0  0  0
 20  9  1  0  0  0
  9 10  2  0  0  0
 10 11  1  0  0  0
 11 12  2  0  0  0
 12 13  1  0  0  0
 13 14  2  0  0  0
 14 15  1  0  0  0
 15  1  1  0  0  0
  1  2  1  0  0  0
  2  3  1  0  0  0
  3  4  1  0  0  0
  4  5  1  0  0  0
  5  6  1  0  0  0
  4  7  1  0  0  0
  7  8  2  0  0  0
  7 23  1  0  0  0
 23 24  2  0  0  0
 24 25  1  0  0  0
 25 26  2  0  0  0
 26 27  1  0  0  0
 27 28  2  0  0  0
 27 29  1  0  0  0
 29 30  1  0  0  0
 29 31  1  0  0  0
 29 32  1  0  0  0
 15 16  2  0  0  0
 16 17  1  0  0  0
 17 18  2  0  0  0
 18 21  1  0  0  0
 21 22  1  0  0  0
 18  9  1  0  0  0
 16 11  1  0  0  0
  6  1  1  0  0  0
 28 23  1  0  0  0
M  END
> <minimizedAffinity>
-8.35207

> <CNNscore>
0.2912260890

> <CNNaffinity>
6.5937752724

> <CNN_VS>
1.9202793837

> <CNNaffinity_variance>
0.2169010937

$$$$
[H]c1nc(N2C([H])([H])C([H])([H])N(C(=O)c3c([H])c([H])c([H])c(C(F)(F)F)c3[H])C([H])([H])C2([H])[H])c2c([H])c(OC([H])([H])[H])c(OC([H])([H])[H])c([H])c2n1


 32 35  0  0  0  0  0  0  0  0999 V2000
   56.0412   -4.1767   -9.0018 N   0  0  0  0  0  0  0  0  0  0  0  0
   55.1661   -4.4875  -10.1031 C   0  0  0  0  0  0  0  0  0  0  0  0
   53.8102   -4.9209   -9.6137 C   0  0  0  0  0  0  0  0  0  0  0  0
   53.2876   -4.0027   -8.5535 N   0  0  0  0  0  0  0  0  0  0  0  0
   54.0897   -2.8515   -8.3109 C   0  0  0  0  0  0  0  0  0  0  0  0
   55.5518   -3.1713   -8.0528 C   0  0  0  0  0  0  0  0  0  0  0  0
   52.0757   -4.4376   -8.0220 C   0  0  0  0  0  0  0  0  0  0  0  0
   51.6746   -5.5774   -8.5973 O   0  0  0  0  0  0  0  0  0  0  0  0
   60.5019   -5.5945  -11.1787 C   0  0  0  0  0  0  0  0  0  0  0  0
   60.4557   -6.0168   -9.8620 C   0  0  0  0  0  0  0  0  0  0  0  0
   59.4166   -5.7608   -9.0096 C   0  0  0  0  0  0  0  0  0  0  0  0
   59.3958   -6.2353   -7.7581 N   0  0  0  0  0  0  0  0  0  0  0  0
   58.3678   -6.0480   -6.9200 C   0  0  0  0  0  0  0  0  0  0  0  0
   57.3243   -5.3488   -7.3782 N   0  0  0  0  0  0  0  0  0  0  0  0
   57.2454   -4.8149   -8.6486 C   0  0  0  0  0  0  0  0  0  0  0  0
   58.3024   -5.0220   -9.4632 C   0  0  0  0  0  0  0  0  0  0  0  0
   58.3227   -4.5804  -10.7738 C   0  0  0  0  0  0  0  0  0  0  0  0
   59.3849   -4.8526  -11.6221 C   0  0  0  0  0  0  0  0  0  0  0  0
   62.7582   -6.3514  -11.9826 C   0  0  0  0  0  0  0  0  0  0  0  0
   61.4834   -5.8237  -12.0502 O   0  0  0  0  0  0  0  0  0  0  0  0
   59.3980   -4.4220  -12.9084 O   0  0  0  0  0  0  0  0  0  0  0  0
   59.4942   -3.0810  -13.2994 C   0  0  0  0  0  0  0  0  0  0  0  0
   51.1630   -3.9854   -7.0419 C   0  0  0  0  0  0  0  0  0  0  0  0
   50.4324   -2.8063   -7.3436 C   0  0  0  0  0  0  0  0  0  0  0  0
   49.5084   -2.3071   -6.4452 C   0  0  0  0  0  0  0  0  0  0  0  0
   49.2584   -2.8945   -5.2678 C   0  0  0  0  0  0  0  0  0  0  0  0
   49.9358   -4.0597   -4.9063 C   0  0  0  0  0  0  0  0  0  0  0  0
   50.8533   -4.5296   -5.8279 C   0  0  0  0  0  0  0  0  0  0  0  0
   49.6543   -4.6865   -3.6158 C   0  0  0  0  0  0  0  0  0  0  0  0
   50.0224   -6.0321   -3.6056 F   0  0  0  0  0  0  0  0  0  0  0  0
   50.4661   -4.0860   -2.6320 F   0  0  0  0  0  0  0  0  0  0  0  0
   48.3439   -4.5583   -3.1986 F   0  0  0  0  0  0  0  0  0  0  0  0
 19 20  1  0  0  0
 20  9  1  0  0  0
  9 10  2  0  0  0
 10 11  1  0  0  0
 11 12  2  0  0  0
 12 13  1  0  0  0
 13 14  2  0  0  0
 14 15  1  0  0  0
 15  1  1  0  0  0
  1  2  1  0  0  0
  2  3  1  0  0  0
  3  4  1  0  0  0
  4  5  1  0  0  0
  5  6  1  0  0  0
  4  7  1  0  0  0
  7  8  2  0  0  0
  7 23  1  0  0  0
 23 24  2  0  0  0
 24 25  1  0  0  0
 25 26  2  0  0  0
 26 27  1  0  0  0
 27 28  2  0  0  0
 27 29  1  0  0  0
 29 30  1  0  0  0
 29 31  1  0  0  0
 29 32  1  0  0  0
 15 16  2  0  0  0
 16 17  1  0  0  0
 17 18  2  0  0  0
 18 21  1  0  0  0
 21 22  1  0  0  0
 18  9  1  0  0  0
 16 11  1  0  0  0
  6  1  1  0  0  0
 28 23  1  0  0  0
M  END
> <minimizedAffinity>
-4.23657

> <CNNscore>
0.2552181184

> <CNNaffinity>
6.0216522217

> <CNN_VS>
1.5368347168

> <CNNaffinity_variance>
0.1643189192

$$$$
[H]c1nc(N2C([H])([H])C([H])([H])N(C(=O)c3c([H])c([H])c([H])c(C(F)(F)F)c3[H])C([H])([H])C2([H])[H])c2c([H])c(OC([H])([H])[H])c(OC([H])([H])[H])c([H])c2n1


 32 35  0  0  0  0  0  0  0  0999 V2000
   60.4260   -6.4276   -9.1234 N   0  0  0  0  0  0  0  0  0  0  0  0
   61.6668   -5.8449   -8.6804 C   0  0  0  0  0  0  0  0  0  0  0  0
   62.2943   -6.6690   -7.5882 C   0  0  0  0  0  0  0  0  0  0  0  0
   62.2982   -8.1261   -7.9302 N   0  0  0  0  0  0  0  0  0  0  0  0
   61.8418   -8.4333   -9.2436 C   0  0  0  0  0  0  0  0  0  0  0  0
   60.4934   -7.8201   -9.5787 C   0  0  0  0  0  0  0  0  0  0  0  0
   62.7908   -8.9154   -6.8935 C   0  0  0  0  0  0  0  0  0  0  0  0
   63.1432   -8.1687   -5.8404 O   0  0  0  0  0  0  0  0  0  0  0  0
   57.1341   -3.7545  -12.0670 C   0  0  0  0  0  0  0  0  0  0  0  0
   56.6073   -3.9337  -10.8003 C   0  0  0  0  0  0  0  0  0  0  0  0
   57.2279   -4.6349   -9.8028 C   0  0  0  0  0  0  0  0  0  0  0  0
   56.7003   -4.7368   -8.5768 N   0  0  0  0  0  0  0  0  0  0  0  0
   57.3110   -5.3690   -7.5661 C   0  0  0  0  0  0  0  0  0  0  0  0
   58.5037   -5.9179   -7.8190 N   0  0  0  0  0  0  0  0  0  0  0  0
   59.1346   -5.8722   -9.0458 C   0  0  0  0  0  0  0  0  0  0  0  0
   58.4863   -5.2289  -10.0407 C   0  0  0  0  0  0  0  0  0  0  0  0
   59.0358   -5.0725  -11.3004 C   0  0  0  0  0  0  0  0  0  0  0  0
   58.3911   -4.3559  -12.2968 C   0  0  0  0  0  0  0  0  0  0  0  0
   56.0631   -3.3952  -14.3106 C   0  0  0  0  0  0  0  0  0  0  0  0
   56.5759   -3.0755  -13.0684 O   0  0  0  0  0  0  0  0  0  0  0  0
   58.9364   -4.2006  -13.5292 O   0  0  0  0  0  0  0  0  0  0  0  0
   60.1053   -3.4785  -13.7986 C   0  0  0  0  0  0  0  0  0  0  0  0
   63.0183  -10.2926   -6.6705 C   0  0  0  0  0  0  0  0  0  0  0  0
   64.0859  -10.8894   -7.3910 C   0  0  0  0  0  0  0  0  0  0  0  0
   64.3844  -12.2277   -7.2177 C   0  0  0  0  0  0  0  0  0  0  0  0
   63.6979  -13.0164   -6.3807 C   0  0  0  0  0  0  0  0  0  0  0  0
   62.6383  -12.4966   -5.6360 C   0  0  0  0  0  0  0  0  0  0  0  0
   62.3671  -11.1555   -5.8356 C   0  0  0  0  0  0  0  0  0  0  0  0
   61.8965  -13.3715   -4.7297 C   0  0  0  0  0  0  0  0  0  0  0  0
   60.9773  -14.1646   -5.4169 F   0  0  0  0  0  0  0  0  0  0  0  0
   62.7945  -14.2886   -4.1464 F   0  0  0  0  0  0  0  0  0  0  0  0
   61.2611  -12.7090   -3.6977 F   0  0  0  0  0  0  0  0  0  0  0  0
 19 20  1  0  0  0
 20  9  1  0  0  0
  9 10  2  0  0  0
 10 11  1  0  0  0
 11 12  2  0  0  0
 12 13  1  0  0  0
 13 14  2  0  0  0
 14 15  1  0  0  0
 15  1  1  0  0  0
  1  2  1  0  0  0
  2  3  1  0  0  0
  3  4  1  0  0  0
  4  5  1  0  0  0
  5  6  1  0  0  0
  4  7  1  0  0  0
  7  8  2  0  0  0
  7 23  1  0  0  0
 23 24  2  0  0  0
 24 25  1  0  0  0
 25 26  2  0  0  0
 26 27  1  0  0  0
 27 28  2  0  0  0
 27 29  1  0  0  0
 29 30  1  0  0  0
 29 31  1  0  0  0
 29 32  1  0  0  0
 15 16  2  0  0  0
 16 17  1  0  0  0
 17 18  2  0  0  0
 18 21  1  0  0  0
 21 22  1  0  0  0
 18  9  1  0  0  0
 16 11  1  0  0  0
  6  1  1  0  0  0
 28 23  1  0  0  0
M  END
> <minimizedAffinity>
-4.74433

> <CNNscore>
0.2518497705

> <CNNaffinity>
5.0036120415

> <CNN_VS>
1.2601585388

> <CNNaffinity_variance>
0.0928791687

$$$$
[H]c1nc(N2C([H])([H])C([H])([H])N(C(=O)c3c([H])c([H])c([H])c(C(F)(F)F)c3[H])C([H])([H])C2([H])[H])c2c([H])c(OC([H])([H])[H])c(OC([H])([H])[H])c([H])c2n1


 32 35  0  0  0  0  0  0  0  0999 V2000
   51.0890   -4.8383   -6.4626 N   0  0  0  0  0  0  0  0  0  0  0  0
   50.8139   -3.7093   -7.3143 C   0  0  0  0  0  0  0  0  0  0  0  0
   52.0882   -3.0773   -7.8065 C   0  0  0  0  0  0  0  0  0  0  0  0
   53.0540   -4.1038   -8.3101 N   0  0  0  0  0  0  0  0  0  0  0  0
   52.5462   -5.4336   -8.3504 C   0  0  0  0  0  0  0  0  0  0  0  0
   51.9319   -5.8909   -7.0390 C   0  0  0  0  0  0  0  0  0  0  0  0
   54.2751   -3.5482   -8.6847 C   0  0  0  0  0  0  0  0  0  0  0  0
   54.2816   -2.2225   -8.5017 O   0  0  0  0  0  0  0  0  0  0  0  0
   53.0429   -6.9800   -2.1915 C   0  0  0  0  0  0  0  0  0  0  0  0
   51.7960   -6.4404   -1.9297 C   0  0  0  0  0  0  0  0  0  0  0  0
   51.0396   -5.7717   -2.8530 C   0  0  0  0  0  0  0  0  0  0  0  0
   49.8159   -5.3121   -2.5648 N   0  0  0  0  0  0  0  0  0  0  0  0
   49.0309   -4.7034   -3.4635 C   0  0  0  0  0  0  0  0  0  0  0  0
   49.5159   -4.5585   -4.7010 N   0  0  0  0  0  0  0  0  0  0  0  0
   50.7630   -4.9934   -5.1018 C   0  0  0  0  0  0  0  0  0  0  0  0
   51.5263   -5.5994   -4.1670 C   0  0  0  0  0  0  0  0  0  0  0  0
   52.7734   -6.1225   -4.4572 C   0  0  0  0  0  0  0  0  0  0  0  0
   53.5231   -6.7989   -3.5073 C   0  0  0  0  0  0  0  0  0  0  0  0
   54.6277   -7.3045   -0.2698 C   0  0  0  0  0  0  0  0  0  0  0  0
   53.8142   -7.6456   -1.3328 O   0  0  0  0  0  0  0  0  0  0  0  0
   54.7435   -7.3149   -3.7980 O   0  0  0  0  0  0  0  0  0  0  0  0
   55.2362   -7.5161   -5.0930 C   0  0  0  0  0  0  0  0  0  0  0  0
   55.4997   -4.0196   -9.2104 C   0  0  0  0  0  0  0  0  0  0  0  0
   56.3615   -4.7012   -8.3116 C   0  0  0  0  0  0  0  0  0  0  0  0
   57.5704   -5.2074   -8.7503 C   0  0  0  0  0  0  0  0  0  0  0  0
   57.9855   -5.0844  -10.0177 C   0  0  0  0  0  0  0  0  0  0  0  0
   57.1879   -4.4303  -10.9577 C   0  0  0  0  0  0  0  0  0  0  0  0
   55.9868   -3.9357  -10.4837 C   0  0  0  0  0  0  0  0  0  0  0  0
   57.6571   -4.3010  -12.3363 C   0  0  0  0  0  0  0  0  0  0  0  0
   57.1006   -5.2768  -13.1635 F   0  0  0  0  0  0  0  0  0  0  0  0
   57.1918   -3.0785  -12.8622 F   0  0  0  0  0  0  0  0  0  0  0  0
   59.0319   -4.3061  -12.4687 F   0  0  0  0  0  0  0  0  0  0  0  0
 19 20  1  0  0  0
 20  9  1  0  0  0
  9 10  2  0  0  0
 10 11  1  0  0  0
 11 12  2  0  0  0
 12 13  1  0  0  0
 13 14  2  0  0  0
 14 15  1  0  0  0
 15  1  1  0  0  0
  1  2  1  0  0  0
  2  3  1  0  0  0
  3  4  1  0  0  0
  4  5  1  0  0  0
  5  6  1  0  0  0
  4  7  1  0  0  0
  7  8  2  0  0  0
  7 23  1  0  0  0
 23 24  2  0  0  0
 24 25  1  0  0  0
 25 26  2  0  0  0
 26 27  1  0  0  0
 27 28  2  0  0  0
 27 29  1  0  0  0
 29 30  1  0  0  0
 29 31  1  0  0  0
 29 32  1  0  0  0
 15 16  2  0  0  0
 16 17  1  0  0  0
 17 18  2  0  0  0
 18 21  1  0  0  0
 21 22  1  0  0  0
 18  9  1  0  0  0
 16 11  1  0  0  0
  6  1  1  0  0  0
 28 23  1  0  0  0
M  END
> <minimizedAffinity>
-10.11721

> <CNNscore>
0.2158576697

> <CNNaffinity>
6.6860036850

> <CNN_VS>
1.4432251453

> <CNNaffinity_variance>
0.1135274395

$$$$
[H]c1nc(N2C([H])([H])C([H])([H])N(C(=O)c3c([H])c([H])c([H])c(C(F)(F)F)c3[H])C([H])([H])C2([H])[H])c2c([H])c(OC([H])([H])[H])c(OC([H])([H])[H])c([H])c2n1


 32 35  0  0  0  0  0  0  0  0999 V2000
   54.5949   -4.7256   -6.1988 N   0  0  0  0  0  0  0  0  0  0  0  0
   53.7859   -5.5950   -5.3833 C   0  0  0  0  0  0  0  0  0  0  0  0
   54.6075   -6.7146   -4.8027 C   0  0  0  0  0  0  0  0  0  0  0  0
   55.8888   -6.2109   -4.2155 N   0  0  0  0  0  0  0  0  0  0  0  0
   56.0224   -4.7933   -4.1990 C   0  0  0  0  0  0  0  0  0  0  0  0
   55.7727   -4.1423   -5.5481 C   0  0  0  0  0  0  0  0  0  0  0  0
   56.7055   -7.2412   -3.7553 C   0  0  0  0  0  0  0  0  0  0  0  0
   56.1364   -8.4364   -3.9523 O   0  0  0  0  0  0  0  0  0  0  0  0
   57.5357   -4.6657  -10.4408 C   0  0  0  0  0  0  0  0  0  0  0  0
   56.2480   -4.2610  -10.7447 C   0  0  0  0  0  0  0  0  0  0  0  0
   55.2258   -4.2073   -9.8370 C   0  0  0  0  0  0  0  0  0  0  0  0
   54.0088   -3.7596  -10.1688 N   0  0  0  0  0  0  0  0  0  0  0  0
   53.0052   -3.6435   -9.2892 C   0  0  0  0  0  0  0  0  0  0  0  0
   53.2555   -3.9994   -8.0250 N   0  0  0  0  0  0  0  0  0  0  0  0
   54.4722   -4.4743   -7.5787 C   0  0  0  0  0  0  0  0  0  0  0  0
   55.4582   -4.5803   -8.4954 C   0  0  0  0  0  0  0  0  0  0  0  0
   56.7348   -4.9958   -8.1625 C   0  0  0  0  0  0  0  0  0  0  0  0
   57.7575   -5.0409   -9.0974 C   0  0  0  0  0  0  0  0  0  0  0  0
   58.9809   -4.0094  -12.3877 C   0  0  0  0  0  0  0  0  0  0  0  0
   58.5662   -4.7278  -11.2833 O   0  0  0  0  0  0  0  0  0  0  0  0
   59.0093   -5.4439   -8.7652 O   0  0  0  0  0  0  0  0  0  0  0  0
   59.6519   -6.5690   -9.2958 C   0  0  0  0  0  0  0  0  0  0  0  0
   57.9699   -7.3492   -3.1327 C   0  0  0  0  0  0  0  0  0  0  0  0
   58.0156   -7.1165   -1.7331 C   0  0  0  0  0  0  0  0  0  0  0  0
   59.2105   -7.2182   -1.0460 C   0  0  0  0  0  0  0  0  0  0  0  0
   60.3638   -7.5335   -1.6495 C   0  0  0  0  0  0  0  0  0  0  0  0
   60.3935   -7.7804   -3.0227 C   0  0  0  0  0  0  0  0  0  0  0  0
   59.1810   -7.6683   -3.6778 C   0  0  0  0  0  0  0  0  0  0  0  0
   61.6613   -8.1195   -3.6670 C   0  0  0  0  0  0  0  0  0  0  0  0
   61.6955   -7.6906   -4.9940 F   0  0  0  0  0  0  0  0  0  0  0  0
   62.6987   -7.4055   -3.0334 F   0  0  0  0  0  0  0  0  0  0  0  0
   61.9883   -9.4599   -3.6015 F   0  0  0  0  0  0  0  0  0  0  0  0
 19 20  1  0  0  0
 20  9  1  0  0  0
  9 10  2  0  0  0
 10 11  1  0  0  0
 11 12  2  0  0  0
 12 13  1  0  0  0
 13 14  2  0  0  0
 14 15  1  0  0  0
 15  1  1  0  0  0
  1  2  1  0  0  0
  2  3  1  0  0  0
  3  4  1  0  0  0
  4  5  1  0  0  0
  5  6  1  0  0  0
  4  7  1  0  0  0
  7  8  2  0  0  0
  7 23  1  0  0  0
 23 24  2  0  0  0
 24 25  1  0  0  0
 25 26  2  0  0  0
 26 27  1  0  0  0
 27 28  2  0  0  0
 27 29  1  0  0  0
 29 30  1  0  0  0
 29 31  1  0  0  0
 29 32  1  0  0  0
 15 16  2  0  0  0
 16 17  1  0  0  0
 17 18  2  0  0  0
 18 21  1  0  0  0
 21 22  1  0  0  0
 18  9  1  0  0  0
 16 11  1  0  0  0
  6  1  1  0  0  0
 28 23  1  0  0  0
M  END
> <minimizedAffinity>
-7.03598

> <CNNscore>
0.2137080878

> <CNNaffinity>
6.1759228706

> <CNN_VS>
1.3198447227

> <CNNaffinity_variance>
0.2895498276

$$$$
[H]c1nc(N2C([H])([H])C([H])([H])N(C(=O)c3c([H])c([H])c([H])c(C(F)(F)F)c3[H])C([H])([H])C2([H])[H])c2c([H])c(OC([H])([H])[H])c(OC([H])([H])[H])c([H])c2n1


 32 35  0  0  0  0  0  0  0  0999 V2000
   59.9553   -5.6605   -9.8973 N   0  0  0  0  0  0  0  0  0  0  0  0
   60.3148   -6.0090   -8.5465 C   0  0  0  0  0  0  0  0  0  0  0  0
   60.6112   -7.4799   -8.4259 C   0  0  0  0  0  0  0  0  0  0  0  0
   61.5109   -7.9528   -9.5245 N   0  0  0  0  0  0  0  0  0  0  0  0
   62.0089   -6.9243  -10.3741 C   0  0  0  0  0  0  0  0  0  0  0  0
   60.9252   -6.0211  -10.9366 C   0  0  0  0  0  0  0  0  0  0  0  0
   61.7232   -9.3289   -9.4842 C   0  0  0  0  0  0  0  0  0  0  0  0
   61.0659   -9.8917   -8.4632 O   0  0  0  0  0  0  0  0  0  0  0  0
   55.2364   -4.5869   -8.1012 C   0  0  0  0  0  0  0  0  0  0  0  0
   55.3004   -4.3359   -9.4603 C   0  0  0  0  0  0  0  0  0  0  0  0
   56.4298   -4.4892  -10.2170 C   0  0  0  0  0  0  0  0  0  0  0  0
   56.4280   -4.2824  -11.5395 N   0  0  0  0  0  0  0  0  0  0  0  0
   57.5034   -4.4781  -12.3137 C   0  0  0  0  0  0  0  0  0  0  0  0
   58.6213   -4.8991  -11.7131 N   0  0  0  0  0  0  0  0  0  0  0  0
   58.7310   -5.1404  -10.3585 C   0  0  0  0  0  0  0  0  0  0  0  0
   57.6266   -4.9287   -9.6107 C   0  0  0  0  0  0  0  0  0  0  0  0
   57.5954   -5.1816   -8.2511 C   0  0  0  0  0  0  0  0  0  0  0  0
   56.4394   -5.0220   -7.5028 C   0  0  0  0  0  0  0  0  0  0  0  0
   52.9153   -5.0521   -7.2610 C   0  0  0  0  0  0  0  0  0  0  0  0
   54.1626   -4.4619   -7.3221 O   0  0  0  0  0  0  0  0  0  0  0  0
   56.4122   -5.2764   -6.1706 O   0  0  0  0  0  0  0  0  0  0  0  0
   56.3597   -6.5557   -5.6040 C   0  0  0  0  0  0  0  0  0  0  0  0
   62.4538  -10.2776  -10.2353 C   0  0  0  0  0  0  0  0  0  0  0  0
   62.5050  -11.5993   -9.7200 C   0  0  0  0  0  0  0  0  0  0  0  0
   63.1853  -12.5901  -10.4024 C   0  0  0  0  0  0  0  0  0  0  0  0
   63.8194  -12.3622  -11.5599 C   0  0  0  0  0  0  0  0  0  0  0  0
   63.8074  -11.0878  -12.1284 C   0  0  0  0  0  0  0  0  0  0  0  0
   63.1190  -10.1216  -11.4181 C   0  0  0  0  0  0  0  0  0  0  0  0
   64.5077  -10.8546  -13.3903 C   0  0  0  0  0  0  0  0  0  0  0  0
   63.7375  -11.2439  -14.4864 F   0  0  0  0  0  0  0  0  0  0  0  0
   64.6928   -9.4670  -13.5579 F   0  0  0  0  0  0  0  0  0  0  0  0
   65.7542  -11.4450  -13.4630 F   0  0  0  0  0  0  0  0  0  0  0  0
 19 20  1  0  0  0
 20  9  1  0  0  0
  9 10  2  0  0  0
 10 11  1  0  0  0
 11 12  2  0  0  0
 12 13  1  0  0  0
 13 14  2  0  0  0
 14 15  1  0  0  0
 15  1  1  0  0  0
  1  2  1  0  0  0
  2  3  1  0  0  0
  3  4  1  0  0  0
  4  5  1  0  0  0
  5  6  1  0  0  0
  4  7  1  0  0  0
  7  8  2  0  0  0
  7 23  1  0  0  0
 23 24  2  0  0  0
 24 25  1  0  0  0
 25 26  2  0  0  0
 26 27  1  0  0  0
 27 28  2  0  0  0
 27 29  1  0  0  0
 29 30  1  0  0  0
 29 31  1  0  0  0
 29 32  1  0  0  0
 15 16  2  0  0  0
 16 17  1  0  0  0
 17 18  2  0  0  0
 18 21  1  0  0  0
 21 22  1  0  0  0
 18  9  1  0  0  0
 16 11  1  0  0  0
  6  1  1  0  0  0
 28 23  1  0  0  0
M  END
> <minimizedAffinity>
-5.65281

> <CNNscore>
0.2103320062

> <CNNaffinity>
5.2428708076

> <CNN_VS>
1.1027435064

> <CNNaffinity_variance>
0.1537188739

$$$$
[H]c1nc(N2C([H])([H])C([H])([H])N(C(=O)c3c([H])c([H])c([H])c(C(F)(F)F)c3[H])C([H])([H])C2([H])[H])c2c([H])c(OC([H])([H])[H])c(OC([H])([H])[H])c([H])c2n1


 32 35  0  0  0  0  0  0  0  0999 V2000
   55.8138   -4.5116   -8.4616 N   0  0  0  0  0  0  0  0  0  0  0  0
   54.4915   -5.0010   -8.1659 C   0  0  0  0  0  0  0  0  0  0  0  0
   54.5292   -6.0481   -7.0851 C   0  0  0  0  0  0  0  0  0  0  0  0
   55.3815   -5.6195   -5.9319 N   0  0  0  0  0  0  0  0  0  0  0  0
   55.8729   -4.2855   -6.0148 C   0  0  0  0  0  0  0  0  0  0  0  0
   56.5716   -3.9743   -7.3268 C   0  0  0  0  0  0  0  0  0  0  0  0
   55.5041   -6.6118   -4.9620 C   0  0  0  0  0  0  0  0  0  0  0  0
   54.8220   -7.7113   -5.3038 O   0  0  0  0  0  0  0  0  0  0  0  0
   60.4854   -5.8901  -10.1711 C   0  0  0  0  0  0  0  0  0  0  0  0
   59.7093   -5.4268  -11.2186 C   0  0  0  0  0  0  0  0  0  0  0  0
   58.4090   -5.0212  -11.0899 C   0  0  0  0  0  0  0  0  0  0  0  0
   57.7155   -4.5322  -12.1251 N   0  0  0  0  0  0  0  0  0  0  0  0
   56.4606   -4.0762  -12.0170 C   0  0  0  0  0  0  0  0  0  0  0  0
   55.8945   -4.1236  -10.8066 N   0  0  0  0  0  0  0  0  0  0  0  0
   56.5195   -4.6094   -9.6759 C   0  0  0  0  0  0  0  0  0  0  0  0
   57.7827   -5.0630   -9.8254 C   0  0  0  0  0  0  0  0  0  0  0  0
   58.5316   -5.5280   -8.7595 C   0  0  0  0  0  0  0  0  0  0  0  0
   59.8490   -5.9323   -8.9110 C   0  0  0  0  0  0  0  0  0  0  0  0
   62.6492   -6.5552  -11.2598 C   0  0  0  0  0  0  0  0  0  0  0  0
   61.7552   -6.2879  -10.2414 O   0  0  0  0  0  0  0  0  0  0  0  0
   60.5813   -6.3826   -7.8617 O   0  0  0  0  0  0  0  0  0  0  0  0
   61.1671   -7.6519   -7.7845 C   0  0  0  0  0  0  0  0  0  0  0  0
   56.1544   -6.7541   -3.7150 C   0  0  0  0  0  0  0  0  0  0  0  0
   56.1494   -8.0499   -3.1353 C   0  0  0  0  0  0  0  0  0  0  0  0
   56.7772   -8.2769   -1.9251 C   0  0  0  0  0  0  0  0  0  0  0  0
   57.4089   -7.3089   -1.2486 C   0  0  0  0  0  0  0  0  0  0  0  0
   57.4583   -6.0115   -1.7605 C   0  0  0  0  0  0  0  0  0  0  0  0
   56.8188   -5.8207   -2.9715 C   0  0  0  0  0  0  0  0  0  0  0  0
   58.1484   -4.9653   -1.0078 C   0  0  0  0  0  0  0  0  0  0  0  0
   58.4580   -3.8698   -1.8142 F   0  0  0  0  0  0  0  0  0  0  0  0
   57.2703   -4.4535   -0.0307 F   0  0  0  0  0  0  0  0  0  0  0  0
   59.2843   -5.3966   -0.3510 F   0  0  0  0  0  0  0  0  0  0  0  0
 19 20  1  0  0  0
 20  9  1  0  0  0
  9 10  2  0  0  0
 10 11  1  0  0  0
 11 12  2  0  0  0
 12 13  1  0  0  0
 13 14  2  0  0  0
 14 15  1  0  0  0
 15  1  1  0  0  0
  1  2  1  0  0  0
  2  3  1  0  0  0
  3  4  1  0  0  0
  4  5  1  0  0  0
  5  6  1  0  0  0
  4  7  1  0  0  0
  7  8  2  0  0  0
  7 23  1  0  0  0
 23 24  2  0  0  0
 24 25  1  0  0  0
 25 26  2  0  0  0
 26 27  1  0  0  0
 27 28  2  0  0  0
 27 29  1  0  0  0
 29 30  1  0  0  0
 29 31  1  0  0  0
 29 32  1  0  0  0
 15 16  2  0  0  0
 16 17  1  0  0  0
 17 18  2  0  0  0
 18 21  1  0  0  0
 21 22  1  0  0  0
 18  9  1  0  0  0
 16 11  1  0  0  0
  6  1  1  0  0  0
 28 23  1  0  0  0
M  END
> <minimizedAffinity>
-6.62823

> <CNNscore>
0.2074463665

> <CNNaffinity>
5.6458177567

> <CNN_VS>
1.1712043285

> <CNNaffinity_variance>
0.2976548672

$$$$
[H]c1c([H])c([H])c(C2(C(=O)N([H])[H])C([H])([H])C([H])([H])N(C([H])([H])C([H])([H])C3(c4c([H])c([H])c(Cl)c(Cl)c4[H])C([H])([H])N(C(=O)c4c([H])c(OC([H])([H])[H])c(OC([H])([H])[H])c(OC([H])([H])[H])c4[H])C([H])([H])C3([H])[H])C([H])([H])C2([H])[H])c([H])c1[H]


 46 50  0  0  0  0  0  0  0  0999 V2000
   55.3518   -6.3540   -5.7886 C   0  0  0  0  0  0  0  0  0  0  0  0
   54.6146   -7.4057   -6.0607 O   0  0  0  0  0  0  0  0  0  0  0  0
   55.5902   -6.0601   -4.4467 N   0  0  0  0  0  0  0  0  0  0  0  0
   56.2644   -4.9685   -3.8100 C   0  0  0  0  0  0  0  0  0  0  0  0
   55.5555   -4.8060   -2.4708 C   0  0  0  0  0  0  0  0  0  0  0  0
   54.6365   -5.9489   -2.3721 C   0  0  0  0  0  0  0  0  0  0  0  0
   55.1673   -6.9739   -3.3252 C   0  0  0  0  0  0  0  0  0  0  0  0
   53.2280   -5.6903   -2.7816 C   0  0  0  0  0  0  0  0  0  0  0  0
   52.4119   -5.0453   -1.8421 C   0  0  0  0  0  0  0  0  0  0  0  0
   51.0899   -4.7596   -2.1330 C   0  0  0  0  0  0  0  0  0  0  0  0
   50.5413   -5.1050   -3.3614 C   0  0  0  0  0  0  0  0  0  0  0  0
   48.8664   -4.7476   -3.7382 Cl  0  0  0  0  0  0  0  0  0  0  0  0
   51.3404   -5.7402   -4.2899 C   0  0  0  0  0  0  0  0  0  0  0  0
   50.6983   -6.1968   -5.8761 Cl  0  0  0  0  0  0  0  0  0  0  0  0
   52.6636   -6.0148   -3.9720 C   0  0  0  0  0  0  0  0  0  0  0  0
   55.2506   -4.3273   -8.8629 C   0  0  0  0  0  0  0  0  0  0  0  0
   54.8910   -4.9699   -7.7124 C   0  0  0  0  0  0  0  0  0  0  0  0
   55.8106   -5.6428   -6.9321 C   0  0  0  0  0  0  0  0  0  0  0  0
   57.1145   -5.6458   -7.3550 C   0  0  0  0  0  0  0  0  0  0  0  0
   57.5001   -4.9881   -8.5406 C   0  0  0  0  0  0  0  0  0  0  0  0
   56.5420   -4.3311   -9.2810 C   0  0  0  0  0  0  0  0  0  0  0  0
   53.4593   -2.6894   -8.9680 C   0  0  0  0  0  0  0  0  0  0  0  0
   54.2857   -3.6454   -9.6400 O   0  0  0  0  0  0  0  0  0  0  0  0
   58.8241   -5.0168   -8.9334 O   0  0  0  0  0  0  0  0  0  0  0  0
   59.3472   -6.1799   -9.5248 C   0  0  0  0  0  0  0  0  0  0  0  0
   56.9733   -3.7022  -10.4304 O   0  0  0  0  0  0  0  0  0  0  0  0
   56.9230   -4.3048  -11.7128 C   0  0  0  0  0  0  0  0  0  0  0  0
   54.6185   -6.4898   -0.9089 C   0  0  0  0  0  0  0  0  0  0  0  0
   54.3982   -7.9578   -1.0748 C   0  0  0  0  0  0  0  0  0  0  0  0
   53.1950   -8.5078   -0.6047 N   0  0  0  0  0  0  0  0  0  0  0  0
   52.3730   -8.8349   -1.7386 C   0  0  0  0  0  0  0  0  0  0  0  0
   51.1650   -9.6495   -1.4398 C   0  0  0  0  0  0  0  0  0  0  0  0
   50.7368   -9.4542    0.0305 C   0  0  0  0  0  0  0  0  0  0  0  0
   51.8803  -10.0029    0.8329 C   0  0  0  0  0  0  0  0  0  0  0  0
   53.2012   -9.4115    0.4681 C   0  0  0  0  0  0  0  0  0  0  0  0
   49.5023  -10.2203    0.1926 C   0  0  0  0  0  0  0  0  0  0  0  0
   49.3593  -11.2125    1.1532 C   0  0  0  0  0  0  0  0  0  0  0  0
   48.2238  -11.9536    1.2841 C   0  0  0  0  0  0  0  0  0  0  0  0
   47.1419  -11.7605    0.4656 C   0  0  0  0  0  0  0  0  0  0  0  0
   47.2522  -10.7923   -0.4886 C   0  0  0  0  0  0  0  0  0  0  0  0
   48.4113  -10.0300   -0.6287 C   0  0  0  0  0  0  0  0  0  0  0  0
   50.4938   -8.0281    0.2610 C   0  0  0  0  0  0  0  0  0  0  0  0
   51.0504   -7.2303    1.2746 N   0  0  0  0  0  0  0  0  0  0  0  0
   49.6829   -7.4529   -0.5560 O   0  0  0  0  0  0  0  0  0  0  0  0
   50.7726   -7.3376    2.2723 H   0  0  0  0  0  0  0  0  0  0  0  0
   51.7661   -6.5077    1.0140 H   0  0  0  0  0  0  0  0  0  0  0  0
 22 23  1  0  0  0
 23 16  1  0  0  0
 16 17  2  0  0  0
 17 18  1  0  0  0
 18 19  2  0  0  0
 19 20  1  0  0  0
 20 24  1  0  0  0
 24 25  1  0  0  0
 20 21  2  0  0  0
 21 26  1  0  0  0
 26 27  1  0  0  0
 18  1  1  0  0  0
  1  2  2  0  0  0
  1  3  1  0  0  0
  3  4  1  0  0  0
  4  5  1  0  0  0
  5  6  1  0  0  0
  6 28  1  0  0  0
 28 29  1  0  0  0
 29 30  1  0  0  0
 30 31  1  0  0  0
 31 32  1  0  0  0
 32 33  1  0  0  0
 33 34  1  0  0  0
 34 35  1  0  0  0
 33 42  1  0  0  0
 42 43  1  0  0  0
 42 44  2  0  0  0
 33 36  1  0  0  0
 36 37  2  0  0  0
 37 38  1  0  0  0
 38 39  2  0  0  0
 39 40  1  0  0  0
 40 41  2  0  0  0
  6  7  1  0  0  0
  6  8  1  0  0  0
  8  9  2  0  0  0
  9 10  1  0  0  0
 10 11  2  0  0  0
 11 12  1  0  0  0
 11 13  1  0  0  0
 13 14  1  0  0  0
 13 15  2  0  0  0
 21 16  1  0  0  0
  7  3  1  0  0  0
 15  8  1  0  0  0
 35 30  1  0  0  0
 41 36  1  0  0  0
 43 45  1  0  0  0
 43 46  1  0  0  0
M  END
> <minimizedAffinity>
-9.39118

> <CNNscore>
0.6802009940

> <CNNaffinity>
8.1440544128

> <CNN_VS>
5.5395936966

> <CNNaffinity_variance>
0.1759909242

$$$$
[H]c1c([H])c([H])c(C2(C(=O)N([H])[H])C([H])([H])C([H])([H])N(C([H])([H])C([H])([H])C3(c4c([H])c([H])c(Cl)c(Cl)c4[H])C([H])([H])N(C(=O)c4c([H])c(OC([H])([H])[H])c(OC([H])([H])[H])c(OC([H])([H])[H])c4[H])C([H])([H])C3([H])[H])C([H])([H])C2([H])[H])c([H])c1[H]


 46 50  0  0  0  0  0  0  0  0999 V2000
   55.1345   -6.2351   -6.3580 C   0  0  0  0  0  0  0  0  0  0  0  0
   54.3551   -7.2557   -6.6310 O   0  0  0  0  0  0  0  0  0  0  0  0
   55.5000   -6.0374   -5.0271 N   0  0  0  0  0  0  0  0  0  0  0  0
   56.2507   -5.0013   -4.3833 C   0  0  0  0  0  0  0  0  0  0  0  0
   55.6703   -4.9219   -2.9765 C   0  0  0  0  0  0  0  0  0  0  0  0
   54.7419   -6.0566   -2.8705 C   0  0  0  0  0  0  0  0  0  0  0  0
   55.1633   -7.0205   -3.9354 C   0  0  0  0  0  0  0  0  0  0  0  0
   53.3072   -5.7516   -3.1299 C   0  0  0  0  0  0  0  0  0  0  0  0
   52.5591   -5.2883   -2.0388 C   0  0  0  0  0  0  0  0  0  0  0  0
   51.2192   -4.9758   -2.1831 C   0  0  0  0  0  0  0  0  0  0  0  0
   50.5848   -5.1138   -3.4109 C   0  0  0  0  0  0  0  0  0  0  0  0
   48.8866   -4.7209   -3.6026 Cl  0  0  0  0  0  0  0  0  0  0  0  0
   51.3168   -5.5695   -4.4884 C   0  0  0  0  0  0  0  0  0  0  0  0
   50.5638   -5.7572   -6.0804 Cl  0  0  0  0  0  0  0  0  0  0  0  0
   52.6598   -5.8757   -4.3158 C   0  0  0  0  0  0  0  0  0  0  0  0
   54.8032   -3.9503   -9.2283 C   0  0  0  0  0  0  0  0  0  0  0  0
   54.5401   -4.6696   -8.0974 C   0  0  0  0  0  0  0  0  0  0  0  0
   55.5008   -5.4530   -7.4885 C   0  0  0  0  0  0  0  0  0  0  0  0
   56.7447   -5.4866   -8.0636 C   0  0  0  0  0  0  0  0  0  0  0  0
   57.0304   -4.7504   -9.2312 C   0  0  0  0  0  0  0  0  0  0  0  0
   56.0352   -3.9843   -9.7972 C   0  0  0  0  0  0  0  0  0  0  0  0
   52.6633   -2.8183   -9.0244 C   0  0  0  0  0  0  0  0  0  0  0  0
   53.7985   -3.1558   -9.8279 O   0  0  0  0  0  0  0  0  0  0  0  0
   58.2961   -4.8131   -9.7809 O   0  0  0  0  0  0  0  0  0  0  0  0
   59.1730   -5.8394   -9.3883 C   0  0  0  0  0  0  0  0  0  0  0  0
   56.3687   -3.2823  -10.9367 O   0  0  0  0  0  0  0  0  0  0  0  0
   56.3862   -3.8619  -12.2306 C   0  0  0  0  0  0  0  0  0  0  0  0
   54.8468   -6.6965   -1.4517 C   0  0  0  0  0  0  0  0  0  0  0  0
   56.2013   -6.2851   -0.9749 C   0  0  0  0  0  0  0  0  0  0  0  0
   57.2950   -7.1089   -1.2853 N   0  0  0  0  0  0  0  0  0  0  0  0
   58.4382   -6.6403   -0.5492 C   0  0  0  0  0  0  0  0  0  0  0  0
   59.6233   -7.5387   -0.5672 C   0  0  0  0  0  0  0  0  0  0  0  0
   59.5933   -8.4409   -1.8196 C   0  0  0  0  0  0  0  0  0  0  0  0
   58.3671   -9.2887   -1.6449 C   0  0  0  0  0  0  0  0  0  0  0  0
   57.1264   -8.4969   -1.3978 C   0  0  0  0  0  0  0  0  0  0  0  0
   60.8342   -9.2130   -1.7861 C   0  0  0  0  0  0  0  0  0  0  0  0
   61.2245  -10.0458   -2.8262 C   0  0  0  0  0  0  0  0  0  0  0  0
   62.3615  -10.7948   -2.7839 C   0  0  0  0  0  0  0  0  0  0  0  0
   63.1982  -10.7694   -1.6990 C   0  0  0  0  0  0  0  0  0  0  0  0
   62.8414   -9.9604   -0.6606 C   0  0  0  0  0  0  0  0  0  0  0  0
   61.6791   -9.1911   -0.6966 C   0  0  0  0  0  0  0  0  0  0  0  0
   59.5477   -7.5875   -3.0094 C   0  0  0  0  0  0  0  0  0  0  0  0
   58.6847   -7.7196   -4.1100 N   0  0  0  0  0  0  0  0  0  0  0  0
   60.3913   -6.6163   -3.0419 O   0  0  0  0  0  0  0  0  0  0  0  0
   58.7827   -8.4985   -4.7939 H   0  0  0  0  0  0  0  0  0  0  0  0
   57.9212   -7.0111   -4.2420 H   0  0  0  0  0  0  0  0  0  0  0  0
 22 23  1  0  0  0
 23 16  1  0  0  0
 16 17  2  0  0  0
 17 18  1  0  0  0
 18 19  2  0  0  0
 19 20  1  0  0  0
 20 24  1  0  0  0
 24 25  1  0  0  0
 20 21  2  0  0  0
 21 26  1  0  0  0
 26 27  1  0  0  0
 18  1  1  0  0  0
  1  2  2  0  0  0
  1  3  1  0  0  0
  3  4  1  0  0  0
  4  5  1  0  0  0
  5  6  1  0  0  0
  6 28  1  0  0  0
 28 29  1  0  0  0
 29 30  1  0  0  0
 30 31  1  0  0  0
 31 32  1  0  0  0
 32 33  1  0  0  0
 33 34  1  0  0  0
 34 35  1  0  0  0
 33 42  1  0  0  0
 42 43  1  0  0  0
 42 44  2  0  0  0
 33 36  1  0  0  0
 36 37  2  0  0  0
 37 38  1  0  0  0
 38 39  2  0  0  0
 39 40  1  0  0  0
 40 41  2  0  0  0
  6  7  1  0  0  0
  6  8  1  0  0  0
  8  9  2  0  0  0
  9 10  1  0  0  0
 10 11  2  0  0  0
 11 12  1  0  0  0
 11 13  1  0  0  0
 13 14  1  0  0  0
 13 15  2  0  0  0
 21 16  1  0  0  0
  7  3  1  0  0  0
 15  8  1  0  0  0
 35 30  1  0  0  0
 41 36  1  0  0  0
 43 45  1  0  0  0
 43 46  1  0  0  0
M  END
> <minimizedAffinity>
-8.46321

> <CNNscore>
0.3870701194

> <CNNaffinity>
7.5351624489

> <CNN_VS>
2.9166362286

> <CNNaffinity_variance>
0.2521306872

$$$$
[H]c1c([H])c([H])c(C2(C(=O)N([H])[H])C([H])([H])C([H])([H])N(C([H])([H])C([H])([H])C3(c4c([H])c([H])c(Cl)c(Cl)c4[H])C([H])([H])N(C(=O)c4c([H])c(OC([H])([H])[H])c(OC([H])([H])[H])c(OC([H])([H])[H])c4[H])C([H])([H])C3([H])[H])C([H])([H])C2([H])[H])c([H])c1[H]


 46 50  0  0  0  0  0  0  0  0999 V2000
   55.3597   -6.3310   -6.0310 C   0  0  0  0  0  0  0  0  0  0  0  0
   54.6126   -7.3783   -6.2931 O   0  0  0  0  0  0  0  0  0  0  0  0
   55.6739   -6.0775   -4.6965 N   0  0  0  0  0  0  0  0  0  0  0  0
   56.3789   -5.0021   -4.0656 C   0  0  0  0  0  0  0  0  0  0  0  0
   55.7477   -4.8856   -2.6834 C   0  0  0  0  0  0  0  0  0  0  0  0
   54.8409   -6.0367   -2.5680 C   0  0  0  0  0  0  0  0  0  0  0  0
   55.3202   -7.0282   -3.5817 C   0  0  0  0  0  0  0  0  0  0  0  0
   53.4100   -5.7741   -2.8875 C   0  0  0  0  0  0  0  0  0  0  0  0
   52.6445   -5.1716   -1.8797 C   0  0  0  0  0  0  0  0  0  0  0  0
   51.3066   -4.8858   -2.0847 C   0  0  0  0  0  0  0  0  0  0  0  0
   50.6914   -5.1890   -3.2925 C   0  0  0  0  0  0  0  0  0  0  0  0
   48.9959   -4.8310   -3.5607 Cl  0  0  0  0  0  0  0  0  0  0  0  0
   51.4406   -5.7822   -4.2881 C   0  0  0  0  0  0  0  0  0  0  0  0
   50.7126   -6.1837   -5.8519 Cl  0  0  0  0  0  0  0  0  0  0  0  0
   52.7812   -6.0580   -4.0558 C   0  0  0  0  0  0  0  0  0  0  0  0
   55.0760   -4.1852   -9.0116 C   0  0  0  0  0  0  0  0  0  0  0  0
   54.7875   -4.8674   -7.8639 C   0  0  0  0  0  0  0  0  0  0  0  0
   55.7487   -5.5818   -7.1761 C   0  0  0  0  0  0  0  0  0  0  0  0
   57.0198   -5.5851   -7.6893 C   0  0  0  0  0  0  0  0  0  0  0  0
   57.3320   -4.8868   -8.8732 C   0  0  0  0  0  0  0  0  0  0  0  0
   56.3349   -4.1893   -9.5192 C   0  0  0  0  0  0  0  0  0  0  0  0
   52.8760   -3.1557   -8.9653 C   0  0  0  0  0  0  0  0  0  0  0  0
   54.0700   -3.4613   -9.6927 O   0  0  0  0  0  0  0  0  0  0  0  0
   58.6248   -4.9171   -9.3588 O   0  0  0  0  0  0  0  0  0  0  0  0
   59.2397   -6.1544   -9.6180 C   0  0  0  0  0  0  0  0  0  0  0  0
   56.6948   -3.5217  -10.6713 O   0  0  0  0  0  0  0  0  0  0  0  0
   56.5865   -4.0899  -11.9659 C   0  0  0  0  0  0  0  0  0  0  0  0
   54.9097   -6.6229   -1.1239 C   0  0  0  0  0  0  0  0  0  0  0  0
   55.6103   -7.9298   -1.3033 C   0  0  0  0  0  0  0  0  0  0  0  0
   57.0140   -7.9416   -1.2788 N   0  0  0  0  0  0  0  0  0  0  0  0
   57.4592   -6.9398   -0.3479 C   0  0  0  0  0  0  0  0  0  0  0  0
   58.9077   -6.9763   -0.0123 C   0  0  0  0  0  0  0  0  0  0  0  0
   59.7048   -7.6500   -1.1499 C   0  0  0  0  0  0  0  0  0  0  0  0
   59.1971   -9.0621   -1.1819 C   0  0  0  0  0  0  0  0  0  0  0  0
   57.7122   -9.1581   -1.2983 C   0  0  0  0  0  0  0  0  0  0  0  0
   61.1114   -7.5547   -0.7634 C   0  0  0  0  0  0  0  0  0  0  0  0
   61.5202   -6.9864    0.4356 C   0  0  0  0  0  0  0  0  0  0  0  0
   62.8314   -6.8627    0.7836 C   0  0  0  0  0  0  0  0  0  0  0  0
   63.8369   -7.2981   -0.0393 C   0  0  0  0  0  0  0  0  0  0  0  0
   63.4667   -7.8611   -1.2250 C   0  0  0  0  0  0  0  0  0  0  0  0
   62.1267   -7.9909   -1.5881 C   0  0  0  0  0  0  0  0  0  0  0  0
   59.4593   -6.9136   -2.3923 C   0  0  0  0  0  0  0  0  0  0  0  0
   59.0667   -7.4522   -3.6290 N   0  0  0  0  0  0  0  0  0  0  0  0
   59.6234   -5.6385   -2.3362 O   0  0  0  0  0  0  0  0  0  0  0  0
   59.7161   -8.0212   -4.2108 H   0  0  0  0  0  0  0  0  0  0  0  0
   58.0904   -7.2737   -3.9714 H   0  0  0  0  0  0  0  0  0  0  0  0
 22 23  1  0  0  0
 23 16  1  0  0  0
 16 17  2  0  0  0
 17 18  1  0  0  0
 18 19  2  0  0  0
 19 20  1  0  0  0
 20 24  1  0  0  0
 24 25  1  0  0  0
 20 21  2  0  0  0
 21 26  1  0  0  0
 26 27  1  0  0  0
 18  1  1  0  0  0
  1  2  2  0  0  0
  1  3  1  0  0  0
  3  4  1  0  0  0
  4  5  1  0  0  0
  5  6  1  0  0  0
  6 28  1  0  0  0
 28 29  1  0  0  0
 29 30  1  0  0  0
 30 31  1  0  0  0
 31 32  1  0  0  0
 32 33  1  0  0  0
 33 34  1  0  0  0
 34 35  1  0  0  0
 33 42  1  0  0  0
 42 43  1  0  0  0
 42 44  2  0  0  0
 33 36  1  0  0  0
 36 37  2  0  0  0
 37 38  1  0  0  0
 38 39  2  0  0  0
 39 40  1  0  0  0
 40 41  2  0  0  0
  6  7  1  0  0  0
  6  8  1  0  0  0
  8  9  2  0  0  0
  9 10  1  0  0  0
 10 11  2  0  0  0
 11 12  1  0  0  0
 11 13  1  0  0  0
 13 14  1  0  0  0
 13 15  2  0  0  0
 21 16  1  0  0  0
  7  3  1  0  0  0
 15  8  1  0  0  0
 35 30  1  0  0  0
 41 36  1  0  0  0
 43 45  1  0  0  0
 43 46  1  0  0  0
M  END
> <minimizedAffinity>
-8.56546

> <CNNscore>
0.3096789122

> <CNNaffinity>
7.2448883057

> <CNN_VS>
2.2435891628

> <CNNaffinity_variance>
0.2175879925

$$$$
[H]c1c([H])c([H])c(C2(C(=O)N([H])[H])C([H])([H])C([H])([H])N(C([H])([H])C([H])([H])C3(c4c([H])c([H])c(Cl)c(Cl)c4[H])C([H])([H])N(C(=O)c4c([H])c(OC([H])([H])[H])c(OC([H])([H])[H])c(OC([H])([H])[H])c4[H])C([H])([H])C3([H])[H])C([H])([H])C2([H])[H])c([H])c1[H]


 46 50  0  0  0  0  0  0  0  0999 V2000
   55.2278   -3.8603   -7.5592 C   0  0  0  0  0  0  0  0  0  0  0  0
   55.3267   -2.5952   -7.8961 O   0  0  0  0  0  0  0  0  0  0  0  0
   56.3808   -4.6409   -7.6296 N   0  0  0  0  0  0  0  0  0  0  0  0
   56.6050   -6.0401   -7.4202 C   0  0  0  0  0  0  0  0  0  0  0  0
   57.7675   -6.3866   -8.3427 C   0  0  0  0  0  0  0  0  0  0  0  0
   58.2379   -5.1020   -8.8805 C   0  0  0  0  0  0  0  0  0  0  0  0
   57.7400   -4.0613   -7.9268 C   0  0  0  0  0  0  0  0  0  0  0  0
   57.7102   -4.7239  -10.2211 C   0  0  0  0  0  0  0  0  0  0  0  0
   56.3158   -4.6607  -10.3493 C   0  0  0  0  0  0  0  0  0  0  0  0
   55.7325   -4.3151  -11.5551 C   0  0  0  0  0  0  0  0  0  0  0  0
   56.5140   -4.0231  -12.6656 C   0  0  0  0  0  0  0  0  0  0  0  0
   55.7831   -3.5850  -14.1981 Cl  0  0  0  0  0  0  0  0  0  0  0  0
   57.8874   -4.0837  -12.5447 C   0  0  0  0  0  0  0  0  0  0  0  0
   58.9350   -3.7135  -13.9239 Cl  0  0  0  0  0  0  0  0  0  0  0  0
   58.4465   -4.4332  -11.3230 C   0  0  0  0  0  0  0  0  0  0  0  0
   51.5527   -3.9001   -7.3118 C   0  0  0  0  0  0  0  0  0  0  0  0
   52.8304   -3.6119   -7.6997 C   0  0  0  0  0  0  0  0  0  0  0  0
   53.9227   -4.2658   -7.1644 C   0  0  0  0  0  0  0  0  0  0  0  0
   53.6807   -5.2269   -6.2172 C   0  0  0  0  0  0  0  0  0  0  0  0
   52.3678   -5.5341   -5.8063 C   0  0  0  0  0  0  0  0  0  0  0  0
   51.3141   -4.8518   -6.3738 C   0  0  0  0  0  0  0  0  0  0  0  0
   50.1452   -1.9204   -7.3514 C   0  0  0  0  0  0  0  0  0  0  0  0
   50.4544   -3.2139   -7.8799 O   0  0  0  0  0  0  0  0  0  0  0  0
   52.1666   -6.5078   -4.8474 O   0  0  0  0  0  0  0  0  0  0  0  0
   52.8822   -6.4494   -3.6387 C   0  0  0  0  0  0  0  0  0  0  0  0
   50.0507   -5.1931   -5.9378 O   0  0  0  0  0  0  0  0  0  0  0  0
   49.4535   -4.6425   -4.7757 C   0  0  0  0  0  0  0  0  0  0  0  0
   59.7959   -5.0996   -8.9608 C   0  0  0  0  0  0  0  0  0  0  0  0
   60.1705   -6.5117   -8.6495 C   0  0  0  0  0  0  0  0  0  0  0  0
   61.2165   -7.0992   -9.3788 N   0  0  0  0  0  0  0  0  0  0  0  0
   60.9056   -8.4894   -9.5768 C   0  0  0  0  0  0  0  0  0  0  0  0
   61.7832   -9.2112  -10.5363 C   0  0  0  0  0  0  0  0  0  0  0  0
   63.1556   -8.5117  -10.6384 C   0  0  0  0  0  0  0  0  0  0  0  0
   62.8484   -7.1595  -11.2129 C   0  0  0  0  0  0  0  0  0  0  0  0
   61.8053   -6.4121  -10.4507 C   0  0  0  0  0  0  0  0  0  0  0  0
   63.9632   -9.3434  -11.5291 C   0  0  0  0  0  0  0  0  0  0  0  0
   65.0224   -8.8358  -12.2694 C   0  0  0  0  0  0  0  0  0  0  0  0
   65.7545   -9.5991  -13.1278 C   0  0  0  0  0  0  0  0  0  0  0  0
   65.4858  -10.9300  -13.3130 C   0  0  0  0  0  0  0  0  0  0  0  0
   64.4504  -11.4579  -12.5994 C   0  0  0  0  0  0  0  0  0  0  0  0
   63.6965  -10.6828  -11.7191 C   0  0  0  0  0  0  0  0  0  0  0  0
   63.7523   -8.4556   -9.3017 C   0  0  0  0  0  0  0  0  0  0  0  0
   63.4817   -9.3104   -8.2203 N   0  0  0  0  0  0  0  0  0  0  0  0
   64.6148   -7.5209   -9.1059 O   0  0  0  0  0  0  0  0  0  0  0  0
   62.5754   -9.2784   -7.7089 H   0  0  0  0  0  0  0  0  0  0  0  0
   64.2166   -9.9991   -7.9236 H   0  0  0  0  0  0  0  0  0  0  0  0
 22 23  1  0  0  0
 23 16  1  0  0  0
 16 17  2  0  0  0
 17 18  1  0  0  0
 18 19  2  0  0  0
 19 20  1  0  0  0
 20 24  1  0  0  0
 24 25  1  0  0  0
 20 21  2  0  0  0
 21 26  1  0  0  0
 26 27  1  0  0  0
 18  1  1  0  0  0
  1  2  2  0  0  0
  1  3  1  0  0  0
  3  4  1  0  0  0
  4  5  1  0  0  0
  5  6  1  0  0  0
  6 28  1  0  0  0
 28 29  1  0  0  0
 29 30  1  0  0  0
 30 31  1  0  0  0
 31 32  1  0  0  0
 32 33  1  0  0  0
 33 34  1  0  0  0
 34 35  1  0  0  0
 33 42  1  0  0  0
 42 43  1  0  0  0
 42 44  2  0  0  0
 33 36  1  0  0  0
 36 37  2  0  0  0
 37 38  1  0  0  0
 38 39  2  0  0  0
 39 40  1  0  0  0
 40 41  2  0  0  0
  6  7  1  0  0  0
  6  8  1  0  0  0
  8  9  2  0  0  0
  9 10  1  0  0  0
 10 11  2  0  0  0
 11 12  1  0  0  0
 11 13  1  0  0  0
 13 14  1  0  0  0
 13 15  2  0  0  0
 21 16  1  0  0  0
  7  3  1  0  0  0
 15  8  1  0  0  0
 35 30  1  0  0  0
 41 36  1  0  0  0
 43 45  1  0  0  0
 43 46  1  0  0  0
M  END
> <minimizedAffinity>
-3.87337

> <CNNscore>
0.2213487327

> <CNNaffinity>
6.7683210373

> <CNN_VS>
1.4981592894

> <CNNaffinity_variance>
0.0739498287

$$$$
[H]c1c([H])c([H])c(C2(C(=O)N([H])[H])C([H])([H])C([H])([H])N(C([H])([H])C([H])([H])C3(c4c([H])c([H])c(Cl)c(Cl)c4[H])C([H])([H])N(C(=O)c4c([H])c(OC([H])([H])[H])c(OC([H])([H])[H])c(OC([H])([H])[H])c4[H])C([H])([H])C3([H])[H])C([H])([H])C2([H])[H])c([H])c1[H]


 46 50  0  0  0  0  0  0  0  0999 V2000
   55.0552   -6.2222   -6.3932 C   0  0  0  0  0  0  0  0  0  0  0  0
   54.3017   -7.2815   -6.5771 O   0  0  0  0  0  0  0  0  0  0  0  0
   55.4819   -5.9489   -5.0944 N   0  0  0  0  0  0  0  0  0  0  0  0
   56.2256   -4.8575   -4.5398 C   0  0  0  0  0  0  0  0  0  0  0  0
   55.7168   -4.7320   -3.1088 C   0  0  0  0  0  0  0  0  0  0  0  0
   54.8387   -5.8925   -2.9014 C   0  0  0  0  0  0  0  0  0  0  0  0
   55.2400   -6.8903   -3.9425 C   0  0  0  0  0  0  0  0  0  0  0  0
   53.3819   -5.6510   -3.0967 C   0  0  0  0  0  0  0  0  0  0  0  0
   52.6798   -5.1395   -1.9967 C   0  0  0  0  0  0  0  0  0  0  0  0
   51.3237   -4.8798   -2.0832 C   0  0  0  0  0  0  0  0  0  0  0  0
   50.6273   -5.1197   -3.2608 C   0  0  0  0  0  0  0  0  0  0  0  0
   48.9083   -4.7943   -3.3791 Cl  0  0  0  0  0  0  0  0  0  0  0  0
   51.3139   -5.6232   -4.3468 C   0  0  0  0  0  0  0  0  0  0  0  0
   50.4806   -5.9408   -5.8770 Cl  0  0  0  0  0  0  0  0  0  0  0  0
   52.6743   -5.8746   -4.2326 C   0  0  0  0  0  0  0  0  0  0  0  0
   56.9722   -4.7359   -9.1654 C   0  0  0  0  0  0  0  0  0  0  0  0
   56.6195   -5.4812   -8.0763 C   0  0  0  0  0  0  0  0  0  0  0  0
   55.3322   -5.4823   -7.5762 C   0  0  0  0  0  0  0  0  0  0  0  0
   54.4062   -4.7000   -8.2164 C   0  0  0  0  0  0  0  0  0  0  0  0
   54.7558   -3.9249   -9.3405 C   0  0  0  0  0  0  0  0  0  0  0  0
   56.0546   -3.9615   -9.7985 C   0  0  0  0  0  0  0  0  0  0  0  0
   59.1374   -5.8360   -9.2296 C   0  0  0  0  0  0  0  0  0  0  0  0
   58.2988   -4.7570   -9.6549 O   0  0  0  0  0  0  0  0  0  0  0  0
   53.7935   -3.1481   -9.9558 O   0  0  0  0  0  0  0  0  0  0  0  0
   52.6960   -2.6835   -9.2102 C   0  0  0  0  0  0  0  0  0  0  0  0
   56.3423   -3.1865  -10.9026 O   0  0  0  0  0  0  0  0  0  0  0  0
   56.4561   -3.7127  -12.2143 C   0  0  0  0  0  0  0  0  0  0  0  0
   55.0416   -6.4603   -1.4627 C   0  0  0  0  0  0  0  0  0  0  0  0
   55.9148   -7.6542   -1.6711 C   0  0  0  0  0  0  0  0  0  0  0  0
   57.2557   -7.5779   -1.2622 N   0  0  0  0  0  0  0  0  0  0  0  0
   58.0753   -8.1716   -2.2841 C   0  0  0  0  0  0  0  0  0  0  0  0
   59.5398   -7.9614   -2.1326 C   0  0  0  0  0  0  0  0  0  0  0  0
   59.8933   -7.6969   -0.6533 C   0  0  0  0  0  0  0  0  0  0  0  0
   59.1999   -6.4071   -0.3241 C   0  0  0  0  0  0  0  0  0  0  0  0
   57.7413   -6.4180   -0.6405 C   0  0  0  0  0  0  0  0  0  0  0  0
   61.3507   -7.5939   -0.6026 C   0  0  0  0  0  0  0  0  0  0  0  0
   62.0283   -7.1236    0.5142 C   0  0  0  0  0  0  0  0  0  0  0  0
   63.3836   -6.9918    0.5529 C   0  0  0  0  0  0  0  0  0  0  0  0
   64.1679   -7.3206   -0.5215 C   0  0  0  0  0  0  0  0  0  0  0  0
   63.5310   -7.7857   -1.6341 C   0  0  0  0  0  0  0  0  0  0  0  0
   62.1442   -7.9231   -1.6812 C   0  0  0  0  0  0  0  0  0  0  0  0
   59.4273   -8.8308    0.1486 C   0  0  0  0  0  0  0  0  0  0  0  0
   58.6016   -8.7787    1.2840 N   0  0  0  0  0  0  0  0  0  0  0  0
   59.8211   -9.9946   -0.2344 O   0  0  0  0  0  0  0  0  0  0  0  0
   58.9420   -8.4030    2.1934 H   0  0  0  0  0  0  0  0  0  0  0  0
   57.6148   -9.1292    1.2083 H   0  0  0  0  0  0  0  0  0  0  0  0
 22 23  1  0  0  0
 23 16  1  0  0  0
 16 17  2  0  0  0
 17 18  1  0  0  0
 18 19  2  0  0  0
 19 20  1  0  0  0
 20 24  1  0  0  0
 24 25  1  0  0  0
 20 21  2  0  0  0
 21 26  1  0  0  0
 26 27  1  0  0  0
 18  1  1  0  0  0
  1  2  2  0  0  0
  1  3  1  0  0  0
  3  4  1  0  0  0
  4  5  1  0  0  0
  5  6  1  0  0  0
  6 28  1  0  0  0
 28 29  1  0  0  0
 29 30  1  0  0  0
 30 31  1  0  0  0
 31 32  1  0  0  0
 32 33  1  0  0  0
 33 34  1  0  0  0
 34 35  1  0  0  0
 33 42  1  0  0  0
 42 43  1  0  0  0
 42 44  2  0  0  0
 33 36  1  0  0  0
 36 37  2  0  0  0
 37 38  1  0  0  0
 38 39  2  0  0  0
 39 40  1  0  0  0
 40 41  2  0  0  0
  6  7  1  0  0  0
  6  8  1  0  0  0
  8  9  2  0  0  0
  9 10  1  0  0  0
 10 11  2  0  0  0
 11 12  1  0  0  0
 11 13  1  0  0  0
 13 14  1  0  0  0
 13 15  2  0  0  0
 21 16  1  0  0  0
  7  3  1  0  0  0
 15  8  1  0  0  0
 35 30  1  0  0  0
 41 36  1  0  0  0
 43 45  1  0  0  0
 43 46  1  0  0  0
M  END
> <minimizedAffinity>
-7.86037

> <CNNscore>
0.2191648185

> <CNNaffinity>
7.2215056419

> <CNN_VS>
1.5827000141

> <CNNaffinity_variance>
0.1334559768

$$$$
[H]c1c([H])c([H])c(C2(C(=O)N([H])[H])C([H])([H])C([H])([H])N(C([H])([H])C([H])([H])C3(c4c([H])c([H])c(Cl)c(Cl)c4[H])C([H])([H])N(C(=O)c4c([H])c(OC([H])([H])[H])c(OC([H])([H])[H])c(OC([H])([H])[H])c4[H])C([H])([H])C3([H])[H])C([H])([H])C2([H])[H])c([H])c1[H]


 46 50  0  0  0  0  0  0  0  0999 V2000
   54.0815   -5.3631   -9.3354 C   0  0  0  0  0  0  0  0  0  0  0  0
   53.0125   -5.6086  -10.0570 O   0  0  0  0  0  0  0  0  0  0  0  0
   54.0136   -5.6255   -7.9678 N   0  0  0  0  0  0  0  0  0  0  0  0
   54.9432   -5.4004   -6.9016 C   0  0  0  0  0  0  0  0  0  0  0  0
   54.0719   -5.1633   -5.6740 C   0  0  0  0  0  0  0  0  0  0  0  0
   52.6973   -5.4528   -6.1068 C   0  0  0  0  0  0  0  0  0  0  0  0
   52.8328   -6.3088   -7.3272 C   0  0  0  0  0  0  0  0  0  0  0  0
   51.8801   -4.2757   -6.5132 C   0  0  0  0  0  0  0  0  0  0  0  0
   52.3750   -3.5077   -7.5762 C   0  0  0  0  0  0  0  0  0  0  0  0
   51.6841   -2.3971   -8.0267 C   0  0  0  0  0  0  0  0  0  0  0  0
   50.4852   -2.0177   -7.4368 C   0  0  0  0  0  0  0  0  0  0  0  0
   49.6032   -0.6110   -8.0008 Cl  0  0  0  0  0  0  0  0  0  0  0  0
   49.9934   -2.7705   -6.3899 C   0  0  0  0  0  0  0  0  0  0  0  0
   48.4655   -2.3401   -5.6045 Cl  0  0  0  0  0  0  0  0  0  0  0  0
   50.7070   -3.8801   -5.9579 C   0  0  0  0  0  0  0  0  0  0  0  0
   57.5488   -4.4297  -10.1574 C   0  0  0  0  0  0  0  0  0  0  0  0
   56.4541   -4.9660   -9.5411 C   0  0  0  0  0  0  0  0  0  0  0  0
   55.1842   -4.8462  -10.0707 C   0  0  0  0  0  0  0  0  0  0  0  0
   55.0552   -4.1618  -11.2514 C   0  0  0  0  0  0  0  0  0  0  0  0
   56.1756   -3.6022  -11.8982 C   0  0  0  0  0  0  0  0  0  0  0  0
   57.4200   -3.7520  -11.3265 C   0  0  0  0  0  0  0  0  0  0  0  0
   58.9973   -5.5546   -8.5641 C   0  0  0  0  0  0  0  0  0  0  0  0
   58.8368   -4.5705   -9.5908 O   0  0  0  0  0  0  0  0  0  0  0  0
   56.0028   -2.9179  -13.0856 O   0  0  0  0  0  0  0  0  0  0  0  0
   56.0342   -3.6211  -14.3025 C   0  0  0  0  0  0  0  0  0  0  0  0
   58.4820   -3.1874  -12.0017 O   0  0  0  0  0  0  0  0  0  0  0  0
   59.3618   -3.9304  -12.8288 C   0  0  0  0  0  0  0  0  0  0  0  0
   51.9304   -6.1996   -4.9719 C   0  0  0  0  0  0  0  0  0  0  0  0
   52.4138   -5.5400   -3.7219 C   0  0  0  0  0  0  0  0  0  0  0  0
   53.5918   -6.0206   -3.1283 N   0  0  0  0  0  0  0  0  0  0  0  0
   53.7721   -5.3478   -1.8700 C   0  0  0  0  0  0  0  0  0  0  0  0
   54.8359   -5.9052   -0.9927 C   0  0  0  0  0  0  0  0  0  0  0  0
   55.8866   -6.6584   -1.8363 C   0  0  0  0  0  0  0  0  0  0  0  0
   55.1323   -7.8059   -2.4423 C   0  0  0  0  0  0  0  0  0  0  0  0
   53.9028   -7.3876   -3.1778 C   0  0  0  0  0  0  0  0  0  0  0  0
   56.9225   -7.0850   -0.8971 C   0  0  0  0  0  0  0  0  0  0  0  0
   56.9728   -6.6346    0.4153 C   0  0  0  0  0  0  0  0  0  0  0  0
   57.9566   -7.0010    1.2833 C   0  0  0  0  0  0  0  0  0  0  0  0
   58.9670   -7.8470    0.9077 C   0  0  0  0  0  0  0  0  0  0  0  0
   58.9451   -8.3065   -0.3762 C   0  0  0  0  0  0  0  0  0  0  0  0
   57.9415   -7.9357   -1.2703 C   0  0  0  0  0  0  0  0  0  0  0  0
   56.4388   -5.7339   -2.8295 C   0  0  0  0  0  0  0  0  0  0  0  0
   56.5155   -4.3348   -2.7291 N   0  0  0  0  0  0  0  0  0  0  0  0
   56.9000   -6.2686   -3.9053 O   0  0  0  0  0  0  0  0  0  0  0  0
   55.6677   -3.7332   -2.7859 H   0  0  0  0  0  0  0  0  0  0  0  0
   57.4558   -3.8883   -2.5927 H   0  0  0  0  0  0  0  0  0  0  0  0
 22 23  1  0  0  0
 23 16  1  0  0  0
 16 17  2  0  0  0
 17 18  1  0  0  0
 18 19  2  0  0  0
 19 20  1  0  0  0
 20 24  1  0  0  0
 24 25  1  0  0  0
 20 21  2  0  0  0
 21 26  1  0  0  0
 26 27  1  0  0  0
 18  1  1  0  0  0
  1  2  2  0  0  0
  1  3  1  0  0  0
  3  4  1  0  0  0
  4  5  1  0  0  0
  5  6  1  0  0  0
  6 28  1  0  0  0
 28 29  1  0  0  0
 29 30  1  0  0  0
 30 31  1  0  0  0
 31 32  1  0  0  0
 32 33  1  0  0  0
 33 34  1  0  0  0
 34 35  1  0  0  0
 33 42  1  0  0  0
 42 43  1  0  0  0
 42 44  2  0  0  0
 33 36  1  0  0  0
 36 37  2  0  0  0
 37 38  1  0  0  0
 38 39  2  0  0  0
 39 40  1  0  0  0
 40 41  2  0  0  0
  6  7  1  0  0  0
  6  8  1  0  0  0
  8  9  2  0  0  0
  9 10  1  0  0  0
 10 11  2  0  0  0
 11 12  1  0  0  0
 11 13  1  0  0  0
 13 14  1  0  0  0
 13 15  2  0  0  0
 21 16  1  0  0  0
  7  3  1  0  0  0
 15  8  1  0  0  0
 35 30  1  0  0  0
 41 36  1  0  0  0
 43 45  1  0  0  0
 43 46  1  0  0  0
M  END
> <minimizedAffinity>
-3.82880

> <CNNscore>
0.2006848902

> <CNNaffinity>
7.4720716476

> <CNN_VS>
1.4995318651

> <CNNaffinity_variance>
0.1117939502

$$$$
[H]c1c([H])c([H])c(C2(C(=O)N([H])[H])C([H])([H])C([H])([H])N(C([H])([H])C([H])([H])C3(c4c([H])c([H])c(Cl)c(Cl)c4[H])C([H])([H])N(C(=O)c4c([H])c(OC([H])([H])[H])c(OC([H])([H])[H])c(OC([H])([H])[H])c4[H])C([H])([H])C3([H])[H])C([H])([H])C2([H])[H])c([H])c1[H]


 46 50  0  0  0  0  0  0  0  0999 V2000
   55.5836   -3.6567   -8.1581 C   0  0  0  0  0  0  0  0  0  0  0  0
   55.8079   -2.4005   -8.4671 O   0  0  0  0  0  0  0  0  0  0  0  0
   56.6340   -4.5597   -8.3166 N   0  0  0  0  0  0  0  0  0  0  0  0
   56.7077   -5.9813   -8.1573 C   0  0  0  0  0  0  0  0  0  0  0  0
   57.7699   -6.4265   -9.1553 C   0  0  0  0  0  0  0  0  0  0  0  0
   58.3537   -5.1863   -9.6862 C   0  0  0  0  0  0  0  0  0  0  0  0
   58.0320   -4.1278   -8.6779 C   0  0  0  0  0  0  0  0  0  0  0  0
   57.7992   -4.7076  -10.9830 C   0  0  0  0  0  0  0  0  0  0  0  0
   56.4022   -4.6812  -11.0943 C   0  0  0  0  0  0  0  0  0  0  0  0
   55.7946   -4.2488  -12.2595 C   0  0  0  0  0  0  0  0  0  0  0  0
   56.5540   -3.8313  -13.3450 C   0  0  0  0  0  0  0  0  0  0  0  0
   55.7923   -3.2824  -14.8260 Cl  0  0  0  0  0  0  0  0  0  0  0  0
   57.9298   -3.8552  -13.2407 C   0  0  0  0  0  0  0  0  0  0  0  0
   58.9495   -3.3265  -14.5887 Cl  0  0  0  0  0  0  0  0  0  0  0  0
   58.5134   -4.2936  -12.0598 C   0  0  0  0  0  0  0  0  0  0  0  0
   52.8248   -5.3024   -6.3554 C   0  0  0  0  0  0  0  0  0  0  0  0
   54.0707   -4.9431   -6.7850 C   0  0  0  0  0  0  0  0  0  0  0  0
   54.2646   -3.9250   -7.6978 C   0  0  0  0  0  0  0  0  0  0  0  0
   53.1509   -3.2774   -8.1663 C   0  0  0  0  0  0  0  0  0  0  0  0
   51.8590   -3.6380   -7.7329 C   0  0  0  0  0  0  0  0  0  0  0  0
   51.7226   -4.6607   -6.8200 C   0  0  0  0  0  0  0  0  0  0  0  0
   53.8022   -6.7211   -4.6424 C   0  0  0  0  0  0  0  0  0  0  0  0
   52.6589   -6.3485   -5.4184 O   0  0  0  0  0  0  0  0  0  0  0  0
   50.7622   -2.9620   -8.2310 O   0  0  0  0  0  0  0  0  0  0  0  0
   50.2108   -1.8978   -7.4964 C   0  0  0  0  0  0  0  0  0  0  0  0
   50.4372   -4.9713   -6.4278 O   0  0  0  0  0  0  0  0  0  0  0  0
   49.6615   -5.9884   -7.0394 C   0  0  0  0  0  0  0  0  0  0  0  0
   59.8948   -5.3571   -9.8579 C   0  0  0  0  0  0  0  0  0  0  0  0
   60.3457   -5.8736   -8.5309 C   0  0  0  0  0  0  0  0  0  0  0  0
   61.2174   -6.9739   -8.5060 N   0  0  0  0  0  0  0  0  0  0  0  0
   60.9699   -7.7744   -9.6749 C   0  0  0  0  0  0  0  0  0  0  0  0
   61.9656   -8.8473   -9.9386 C   0  0  0  0  0  0  0  0  0  0  0  0
   62.6729   -9.2562   -8.6287 C   0  0  0  0  0  0  0  0  0  0  0  0
   63.4160   -8.0245   -8.2005 C   0  0  0  0  0  0  0  0  0  0  0  0
   62.5527   -6.8104   -8.1086 C   0  0  0  0  0  0  0  0  0  0  0  0
   63.5567  -10.3661   -8.9811 C   0  0  0  0  0  0  0  0  0  0  0  0
   63.5980  -10.9126  -10.2567 C   0  0  0  0  0  0  0  0  0  0  0  0
   64.3933  -11.9702  -10.5803 C   0  0  0  0  0  0  0  0  0  0  0  0
   65.2105  -12.5638   -9.6542 C   0  0  0  0  0  0  0  0  0  0  0  0
   65.1920  -12.0490   -8.3915 C   0  0  0  0  0  0  0  0  0  0  0  0
   64.3804  -10.9670   -8.0529 C   0  0  0  0  0  0  0  0  0  0  0  0
   61.6581   -9.6897   -7.6652 C   0  0  0  0  0  0  0  0  0  0  0  0
   61.4303   -9.1603   -6.3840 N   0  0  0  0  0  0  0  0  0  0  0  0
   60.8994  -10.6591   -8.0402 O   0  0  0  0  0  0  0  0  0  0  0  0
   62.0979   -9.3140   -5.6000 H   0  0  0  0  0  0  0  0  0  0  0  0
   60.5616   -8.5946   -6.2176 H   0  0  0  0  0  0  0  0  0  0  0  0
 22 23  1  0  0  0
 23 16  1  0  0  0
 16 17  2  0  0  0
 17 18  1  0  0  0
 18 19  2  0  0  0
 19 20  1  0  0  0
 20 24  1  0  0  0
 24 25  1  0  0  0
 20 21  2  0  0  0
 21 26  1  0  0  0
 26 27  1  0  0  0
 18  1  1  0  0  0
  1  2  2  0  0  0
  1  3  1  0  0  0
  3  4  1  0  0  0
  4  5  1  0  0  0
  5  6  1  0  0  0
  6 28  1  0  0  0
 28 29  1  0  0  0
 29 30  1  0  0  0
 30 31  1  0  0  0
 31 32  1  0  0  0
 32 33  1  0  0  0
 33 34  1  0  0  0
 34 35  1  0  0  0
 33 42  1  0  0  0
 42 43  1  0  0  0
 42 44  2  0  0  0
 33 36  1  0  0  0
 36 37  2  0  0  0
 37 38  1  0  0  0
 38 39  2  0  0  0
 39 40  1  0  0  0
 40 41  2  0  0  0
  6  7  1  0  0  0
  6  8  1  0  0  0
  8  9  2  0  0  0
  9 10  1  0  0  0
 10 11  2  0  0  0
 11 12  1  0  0  0
 11 13  1  0  0  0
 13 14  1  0  0  0
 13 15  2  0  0  0
 21 16  1  0  0  0
  7  3  1  0  0  0
 15  8  1  0  0  0
 35 30  1  0  0  0
 41 36  1  0  0  0
 43 45  1  0  0  0
 43 46  1  0  0  0
M  END
> <minimizedAffinity>
-3.12218

> <CNNscore>
0.1996994466

> <CNNaffinity>
6.8138375282

> <CNN_VS>
1.3607195616

> <CNNaffinity_variance>
0.0802921504

$$$$
[H]c1c([H])c([H])c(C2(C(=O)N([H])[H])C([H])([H])C([H])([H])N(C([H])([H])C([H])([H])C3(c4c([H])c([H])c(Cl)c(Cl)c4[H])C([H])([H])N(C(=O)c4c([H])c(OC([H])([H])[H])c(OC([H])([H])[H])c(OC([H])([H])[H])c4[H])C([H])([H])C3([H])[H])C([H])([H])C2([H])[H])c([H])c1[H]


 46 50  0  0  0  0  0  0  0  0999 V2000
   55.1809   -3.8993   -7.4670 C   0  0  0  0  0  0  0  0  0  0  0  0
   55.2736   -2.6314   -7.7951 O   0  0  0  0  0  0  0  0  0  0  0  0
   56.3388   -4.6727   -7.5381 N   0  0  0  0  0  0  0  0  0  0  0  0
   56.5704   -6.0718   -7.3372 C   0  0  0  0  0  0  0  0  0  0  0  0
   57.7384   -6.4053   -8.2574 C   0  0  0  0  0  0  0  0  0  0  0  0
   58.2033   -5.1145   -8.7848 C   0  0  0  0  0  0  0  0  0  0  0  0
   57.6956   -4.0831   -7.8261 C   0  0  0  0  0  0  0  0  0  0  0  0
   57.6785   -4.7305  -10.1249 C   0  0  0  0  0  0  0  0  0  0  0  0
   56.2843   -4.6784  -10.2591 C   0  0  0  0  0  0  0  0  0  0  0  0
   55.7036   -4.3285  -11.4650 C   0  0  0  0  0  0  0  0  0  0  0  0
   56.4877   -4.0210  -12.5694 C   0  0  0  0  0  0  0  0  0  0  0  0
   55.7601   -3.5773  -14.1019 Cl  0  0  0  0  0  0  0  0  0  0  0  0
   57.8610   -4.0707  -12.4426 C   0  0  0  0  0  0  0  0  0  0  0  0
   58.9117   -3.6805  -13.8139 Cl  0  0  0  0  0  0  0  0  0  0  0  0
   58.4174   -4.4248  -11.2210 C   0  0  0  0  0  0  0  0  0  0  0  0
   51.5039   -3.9866   -7.2647 C   0  0  0  0  0  0  0  0  0  0  0  0
   52.7822   -3.6884   -7.6426 C   0  0  0  0  0  0  0  0  0  0  0  0
   53.8767   -4.3151   -7.0799 C   0  0  0  0  0  0  0  0  0  0  0  0
   53.6361   -5.2594   -6.1157 C   0  0  0  0  0  0  0  0  0  0  0  0
   52.3226   -5.5767   -5.7148 C   0  0  0  0  0  0  0  0  0  0  0  0
   51.2667   -4.9216   -6.3097 C   0  0  0  0  0  0  0  0  0  0  0  0
   50.1604   -1.9730   -7.4708 C   0  0  0  0  0  0  0  0  0  0  0  0
   50.4033   -3.3284   -7.8608 O   0  0  0  0  0  0  0  0  0  0  0  0
   52.1228   -6.5328   -4.7380 O   0  0  0  0  0  0  0  0  0  0  0  0
   52.7957   -6.4199   -3.5089 C   0  0  0  0  0  0  0  0  0  0  0  0
   50.0028   -5.2718   -5.8824 O   0  0  0  0  0  0  0  0  0  0  0  0
   49.3843   -4.7079   -4.7379 C   0  0  0  0  0  0  0  0  0  0  0  0
   59.7615   -5.1024   -8.8590 C   0  0  0  0  0  0  0  0  0  0  0  0
   60.0983   -6.4160   -9.4852 C   0  0  0  0  0  0  0  0  0  0  0  0
   61.1043   -7.1969   -8.8942 N   0  0  0  0  0  0  0  0  0  0  0  0
   60.9354   -8.5575   -9.3284 C   0  0  0  0  0  0  0  0  0  0  0  0
   62.0543   -9.4792   -8.9960 C   0  0  0  0  0  0  0  0  0  0  0  0
   62.8376   -8.9528   -7.7742 C   0  0  0  0  0  0  0  0  0  0  0  0
   63.4259   -7.6511   -8.2350 C   0  0  0  0  0  0  0  0  0  0  0  0
   62.4162   -6.7090   -8.8010 C   0  0  0  0  0  0  0  0  0  0  0  0
   63.8484   -9.9671   -7.4800 C   0  0  0  0  0  0  0  0  0  0  0  0
   64.5288  -10.6551   -8.4757 C   0  0  0  0  0  0  0  0  0  0  0  0
   65.4451  -11.6264   -8.2064 C   0  0  0  0  0  0  0  0  0  0  0  0
   65.7539  -11.9856   -6.9206 C   0  0  0  0  0  0  0  0  0  0  0  0
   65.1016  -11.3274   -5.9201 C   0  0  0  0  0  0  0  0  0  0  0  0
   64.1623  -10.3323   -6.1880 C   0  0  0  0  0  0  0  0  0  0  0  0
   61.9088   -8.8079   -6.6506 C   0  0  0  0  0  0  0  0  0  0  0  0
   60.8129   -9.6337   -6.3498 N   0  0  0  0  0  0  0  0  0  0  0  0
   62.1271   -7.8160   -5.8604 O   0  0  0  0  0  0  0  0  0  0  0  0
   59.9508   -9.6359   -6.9335 H   0  0  0  0  0  0  0  0  0  0  0  0
   60.8697  -10.2646   -5.5125 H   0  0  0  0  0  0  0  0  0  0  0  0
 22 23  1  0  0  0
 23 16  1  0  0  0
 16 17  2  0  0  0
 17 18  1  0  0  0
 18 19  2  0  0  0
 19 20  1  0  0  0
 20 24  1  0  0  0
 24 25  1  0  0  0
 20 21  2  0  0  0
 21 26  1  0  0  0
 26 27  1  0  0  0
 18  1  1  0  0  0
  1  2  2  0  0  0
  1  3  1  0  0  0
  3  4  1  0  0  0
  4  5  1  0  0  0
  5  6  1  0  0  0
  6 28  1  0  0  0
 28 29  1  0  0  0
 29 30  1  0  0  0
 30 31  1  0  0  0
 31 32  1  0  0  0
 32 33  1  0  0  0
 33 34  1  0  0  0
 34 35  1  0  0  0
 33 42  1  0  0  0
 42 43  1  0  0  0
 42 44  2  0  0  0
 33 36  1  0  0  0
 36 37  2  0  0  0
 37 38  1  0  0  0
 38 39  2  0  0  0
 39 40  1  0  0  0
 40 41  2  0  0  0
  6  7  1  0  0  0
  6  8  1  0  0  0
  8  9  2  0  0  0
  9 10  1  0  0  0
 10 11  2  0  0  0
 11 12  1  0  0  0
 11 13  1  0  0  0
 13 14  1  0  0  0
 13 15  2  0  0  0
 21 16  1  0  0  0
  7  3  1  0  0  0
 15  8  1  0  0  0
 35 30  1  0  0  0
 41 36  1  0  0  0
 43 45  1  0  0  0
 43 46  1  0  0  0
M  END
> <minimizedAffinity>
-4.10503

> <CNNscore>
0.1978742033

> <CNNaffinity>
6.7380943298

> <CNN_VS>
1.3332951069

> <CNNaffinity_variance>
0.0501911268

$$$$
[H]c1c([H])c([H])c(C2(C(=O)N([H])[H])C([H])([H])C([H])([H])N(C([H])([H])C([H])([H])C3(c4c([H])c([H])c(Cl)c(Cl)c4[H])C([H])([H])N(C(=O)c4c([H])c(OC([H])([H])[H])c(OC([H])([H])[H])c(OC([H])([H])[H])c4[H])C([H])([H])C3([H])[H])C([H])([H])C2([H])[H])c([H])c1[H]


 46 50  0  0  0  0  0  0  0  0999 V2000
   56.6328   -4.7442  -14.2958 C   0  0  0  0  0  0  0  0  0  0  0  0
   55.7331   -5.6952  -14.1969 O   0  0  0  0  0  0  0  0  0  0  0  0
   57.5975   -4.6588  -13.2930 N   0  0  0  0  0  0  0  0  0  0  0  0
   58.6481   -3.7155  -13.0518 C   0  0  0  0  0  0  0  0  0  0  0  0
   58.8081   -3.6959  -11.5364 C   0  0  0  0  0  0  0  0  0  0  0  0
   57.9465   -4.7770  -11.0368 C   0  0  0  0  0  0  0  0  0  0  0  0
   57.7327   -5.6909  -12.2029 C   0  0  0  0  0  0  0  0  0  0  0  0
   56.5907   -4.3692  -10.5742 C   0  0  0  0  0  0  0  0  0  0  0  0
   55.7569   -3.7726  -11.5300 C   0  0  0  0  0  0  0  0  0  0  0  0
   54.4785   -3.3634  -11.1949 C   0  0  0  0  0  0  0  0  0  0  0  0
   53.9922   -3.5341   -9.9051 C   0  0  0  0  0  0  0  0  0  0  0  0
   52.3735   -3.0177   -9.4715 Cl  0  0  0  0  0  0  0  0  0  0  0  0
   54.8090   -4.1211   -8.9603 C   0  0  0  0  0  0  0  0  0  0  0  0
   54.2402   -4.3725   -7.3021 Cl  0  0  0  0  0  0  0  0  0  0  0  0
   56.0874   -4.5224   -9.3235 C   0  0  0  0  0  0  0  0  0  0  0  0
   57.5326   -2.8695  -17.3364 C   0  0  0  0  0  0  0  0  0  0  0  0
   57.5798   -3.7124  -16.2625 C   0  0  0  0  0  0  0  0  0  0  0  0
   56.4882   -3.9116  -15.4403 C   0  0  0  0  0  0  0  0  0  0  0  0
   55.3393   -3.2263  -15.7399 C   0  0  0  0  0  0  0  0  0  0  0  0
   55.2763   -2.3524  -16.8441 C   0  0  0  0  0  0  0  0  0  0  0  0
   56.3947   -2.1912  -17.6322 C   0  0  0  0  0  0  0  0  0  0  0  0
   59.3933   -3.8596  -18.5446 C   0  0  0  0  0  0  0  0  0  0  0  0
   58.6671   -2.6876  -18.1608 O   0  0  0  0  0  0  0  0  0  0  0  0
   54.1003   -1.6786  -17.1107 O   0  0  0  0  0  0  0  0  0  0  0  0
   53.3406   -2.0295  -18.2403 C   0  0  0  0  0  0  0  0  0  0  0  0
   56.2780   -1.3267  -18.7007 O   0  0  0  0  0  0  0  0  0  0  0  0
   56.8440   -0.0268  -18.7152 C   0  0  0  0  0  0  0  0  0  0  0  0
   58.6528   -5.5160   -9.8584 C   0  0  0  0  0  0  0  0  0  0  0  0
   60.0221   -5.7978  -10.3845 C   0  0  0  0  0  0  0  0  0  0  0  0
   60.7983   -6.7699   -9.7337 N   0  0  0  0  0  0  0  0  0  0  0  0
   61.0481   -6.3244   -8.3892 C   0  0  0  0  0  0  0  0  0  0  0  0
   61.6479   -7.3373   -7.4803 C   0  0  0  0  0  0  0  0  0  0  0  0
   62.4122   -8.4030   -8.2948 C   0  0  0  0  0  0  0  0  0  0  0  0
   61.3545   -9.0807   -9.1163 C   0  0  0  0  0  0  0  0  0  0  0  0
   60.5275   -8.1335   -9.9202 C   0  0  0  0  0  0  0  0  0  0  0  0
   63.0311   -9.2901   -7.3114 C   0  0  0  0  0  0  0  0  0  0  0  0
   63.7502  -10.4213   -7.6735 C   0  0  0  0  0  0  0  0  0  0  0  0
   64.2977  -11.2705   -6.7599 C   0  0  0  0  0  0  0  0  0  0  0  0
   64.1701  -11.0551   -5.4126 C   0  0  0  0  0  0  0  0  0  0  0  0
   63.4687   -9.9515   -5.0255 C   0  0  0  0  0  0  0  0  0  0  0  0
   62.9053   -9.0779   -5.9549 C   0  0  0  0  0  0  0  0  0  0  0  0
   63.4348   -7.7310   -9.1003 C   0  0  0  0  0  0  0  0  0  0  0  0
   63.6533   -7.8780  -10.4802 N   0  0  0  0  0  0  0  0  0  0  0  0
   64.2114   -6.9222   -8.4688 O   0  0  0  0  0  0  0  0  0  0  0  0
   64.0516   -8.7517  -10.8829 H   0  0  0  0  0  0  0  0  0  0  0  0
   63.4062   -7.0823  -11.1191 H   0  0  0  0  0  0  0  0  0  0  0  0
 22 23  1  0  0  0
 23 16  1  0  0  0
 16 17  2  0  0  0
 17 18  1  0  0  0
 18 19  2  0  0  0
 19 20  1  0  0  0
 20 24  1  0  0  0
 24 25  1  0  0  0
 20 21  2  0  0  0
 21 26  1  0  0  0
 26 27  1  0  0  0
 18  1  1  0  0  0
  1  2  2  0  0  0
  1  3  1  0  0  0
  3  4  1  0  0  0
  4  5  1  0  0  0
  5  6  1  0  0  0
  6 28  1  0  0  0
 28 29  1  0  0  0
 29 30  1  0  0  0
 30 31  1  0  0  0
 31 32  1  0  0  0
 32 33  1  0  0  0
 33 34  1  0  0  0
 34 35  1  0  0  0
 33 42  1  0  0  0
 42 43  1  0  0  0
 42 44  2  0  0  0
 33 36  1  0  0  0
 36 37  2  0  0  0
 37 38  1  0  0  0
 38 39  2  0  0  0
 39 40  1  0  0  0
 40 41  2  0  0  0
  6  7  1  0  0  0
  6  8  1  0  0  0
  8  9  2  0  0  0
  9 10  1  0  0  0
 10 11  2  0  0  0
 11 12  1  0  0  0
 11 13  1  0  0  0
 13 14  1  0  0  0
 13 15  2  0  0  0
 21 16  1  0  0  0
  7  3  1  0  0  0
 15  8  1  0  0  0
 35 30  1  0  0  0
 41 36  1  0  0  0
 43 45  1  0  0  0
 43 46  1  0  0  0
M  END
> <minimizedAffinity>
-2.63352

> <CNNscore>
0.1878822297

> <CNNaffinity>
6.4586653709

> <CNN_VS>
1.2134684324

> <CNNaffinity_variance>
0.1109560728

$$$$
[H]c1c([H])c(C([H])([H])Oc2c([H])c([H])c(N(C(=O)N([H])C([H])([H])C([H])([H])S(=O)(=O)C([H])([H])[H])C([H])(C([H])([H])[H])C([H])([H])[H])c([H])c2[H])c([H])c([H])c1F


 29 30  0  0  0  0  0  0  0  0999 V2000
   56.6726   -4.6283   -9.5292 C   0  0  0  0  0  0  0  0  0  0  0  0
   57.9364   -5.1752   -9.4500 C   0  0  0  0  0  0  0  0  0  0  0  0
   58.8191   -5.1359  -10.5202 C   0  0  0  0  0  0  0  0  0  0  0  0
   58.4586   -4.5433  -11.7094 C   0  0  0  0  0  0  0  0  0  0  0  0
   57.1926   -3.9962  -11.7869 C   0  0  0  0  0  0  0  0  0  0  0  0
   56.3121   -4.0347  -10.7210 C   0  0  0  0  0  0  0  0  0  0  0  0
   55.7484   -4.6628   -8.4280 N   0  0  0  0  0  0  0  0  0  0  0  0
   54.4141   -4.2058   -8.6069 C   0  0  0  0  0  0  0  0  0  0  0  0
   54.0854   -3.7807   -9.7697 O   0  0  0  0  0  0  0  0  0  0  0  0
   53.4268   -4.1863   -7.5970 N   0  0  0  0  0  0  0  0  0  0  0  0
   53.6179   -4.5126   -6.6324 H   0  0  0  0  0  0  0  0  0  0  0  0
   56.3458   -4.0602   -6.1258 C   0  0  0  0  0  0  0  0  0  0  0  0
   56.2107   -5.1741   -7.1447 C   0  0  0  0  0  0  0  0  0  0  0  0
   55.3719   -6.3009   -6.6481 C   0  0  0  0  0  0  0  0  0  0  0  0
   52.0764   -3.7031   -7.8532 C   0  0  0  0  0  0  0  0  0  0  0  0
   51.2041   -3.8609   -6.6409 C   0  0  0  0  0  0  0  0  0  0  0  0
   49.7650   -2.8372   -6.7915 S   0  0  0  0  0  0  0  0  0  0  0  0
   48.9446   -2.6417   -5.2300 C   0  0  0  0  0  0  0  0  0  0  0  0
   48.8303   -3.4855   -7.7624 O   0  0  0  0  0  0  0  0  0  0  0  0
   50.1615   -1.4829   -7.3330 O   0  0  0  0  0  0  0  0  0  0  0  0
   59.2639   -4.4608  -12.8109 O   0  0  0  0  0  0  0  0  0  0  0  0
   59.9714   -3.3298  -13.2370 C   0  0  0  0  0  0  0  0  0  0  0  0
   61.0013   -3.7853  -14.2074 C   0  0  0  0  0  0  0  0  0  0  0  0
   60.9872   -3.3374  -15.5116 C   0  0  0  0  0  0  0  0  0  0  0  0
   61.9311   -3.7439  -16.4366 C   0  0  0  0  0  0  0  0  0  0  0  0
   62.9314   -4.6253  -16.0726 C   0  0  0  0  0  0  0  0  0  0  0  0
   63.8863   -5.0634  -16.9284 F   0  0  0  0  0  0  0  0  0  0  0  0
   62.9552   -5.0776  -14.7773 C   0  0  0  0  0  0  0  0  0  0  0  0
   62.0081   -4.6709  -13.8456 C   0  0  0  0  0  0  0  0  0  0  0  0
 12 13  1  0  0  0
 13 14  1  0  0  0
 13  7  1  0  0  0
  7  8  1  0  0  0
  8  9  2  0  0  0
  8 10  1  0  0  0
 10 15  1  0  0  0
 15 16  1  0  0  0
 16 17  1  0  0  0
 17 18  1  0  0  0
 17 19  2  0  0  0
 17 20  2  0  0  0
  7  1  1  0  0  0
  1  2  2  0  0  0
  2  3  1  0  0  0
  3  4  2  0  0  0
  4 21  1  0  0  0
 21 22  1  0  0  0
 22 23  1  0  0  0
 23 24  2  0  0  0
 24 25  1  0  0  0
 25 26  2  0  0  0
 26 27  1  0  0  0
 26 28  1  0  0  0
 28 29  2  0  0  0
  4  5  1  0  0  0
  5  6  2  0  0  0
  6  1  1  0  0  0
 29 23  1  0  0  0
 10 11  1  0  0  0
M  END
> <minimizedAffinity>
-6.63169

> <CNNscore>
0.3716620803

> <CNNaffinity>
5.8297739029

> <CNN_VS>
2.1667058468

> <CNNaffinity_variance>
0.3105627298

$$$$
[H]c1c([H])c(C([H])([H])Oc2c([H])c([H])c(N(C(=O)N([H])C([H])([H])C([H])([H])S(=O)(=O)C([H])([H])[H])C([H])(C([H])([H])[H])C([H])([H])[H])c([H])c2[H])c([H])c([H])c1F


 29 30  0  0  0  0  0  0  0  0999 V2000
   55.3948   -4.6851   -8.3170 C   0  0  0  0  0  0  0  0  0  0  0  0
   54.8241   -3.9974   -9.3677 C   0  0  0  0  0  0  0  0  0  0  0  0
   55.4939   -3.8081  -10.5683 C   0  0  0  0  0  0  0  0  0  0  0  0
   56.7642   -4.3060  -10.7524 C   0  0  0  0  0  0  0  0  0  0  0  0
   57.3342   -4.9943   -9.6992 C   0  0  0  0  0  0  0  0  0  0  0  0
   56.6676   -5.1836   -8.5022 C   0  0  0  0  0  0  0  0  0  0  0  0
   54.7119   -4.8877   -7.0679 N   0  0  0  0  0  0  0  0  0  0  0  0
   53.3248   -5.1996   -7.0599 C   0  0  0  0  0  0  0  0  0  0  0  0
   52.7336   -5.2954   -8.1923 O   0  0  0  0  0  0  0  0  0  0  0  0
   52.5530   -5.4107   -5.8960 N   0  0  0  0  0  0  0  0  0  0  0  0
   52.9602   -5.3489   -4.9454 H   0  0  0  0  0  0  0  0  0  0  0  0
   56.1545   -6.0747   -5.4772 C   0  0  0  0  0  0  0  0  0  0  0  0
   55.4708   -4.7688   -5.8302 C   0  0  0  0  0  0  0  0  0  0  0  0
   56.4179   -3.6189   -5.8541 C   0  0  0  0  0  0  0  0  0  0  0  0
   51.1325   -5.7279   -5.9641 C   0  0  0  0  0  0  0  0  0  0  0  0
   50.5800   -6.0401   -4.6030 C   0  0  0  0  0  0  0  0  0  0  0  0
   49.7988   -4.6026   -3.9211 S   0  0  0  0  0  0  0  0  0  0  0  0
   49.5563   -3.3514   -5.1562 C   0  0  0  0  0  0  0  0  0  0  0  0
   50.6776   -4.0630   -2.8380 O   0  0  0  0  0  0  0  0  0  0  0  0
   48.4682   -4.9881   -3.3168 O   0  0  0  0  0  0  0  0  0  0  0  0
   57.4941   -4.1655  -11.8997 O   0  0  0  0  0  0  0  0  0  0  0  0
   56.9901   -3.8588  -13.1699 C   0  0  0  0  0  0  0  0  0  0  0  0
   58.1499   -3.5717  -14.0543 C   0  0  0  0  0  0  0  0  0  0  0  0
   59.4346   -3.5700  -13.5529 C   0  0  0  0  0  0  0  0  0  0  0  0
   60.5326   -3.3060  -14.3506 C   0  0  0  0  0  0  0  0  0  0  0  0
   60.3693   -3.0318  -15.6953 C   0  0  0  0  0  0  0  0  0  0  0  0
   61.4011   -2.7648  -16.5321 F   0  0  0  0  0  0  0  0  0  0  0  0
   59.0953   -3.0306  -16.2052 C   0  0  0  0  0  0  0  0  0  0  0  0
   57.9900   -3.2956  -15.4060 C   0  0  0  0  0  0  0  0  0  0  0  0
 12 13  1  0  0  0
 13 14  1  0  0  0
 13  7  1  0  0  0
  7  8  1  0  0  0
  8  9  2  0  0  0
  8 10  1  0  0  0
 10 15  1  0  0  0
 15 16  1  0  0  0
 16 17  1  0  0  0
 17 18  1  0  0  0
 17 19  2  0  0  0
 17 20  2  0  0  0
  7  1  1  0  0  0
  1  2  2  0  0  0
  2  3  1  0  0  0
  3  4  2  0  0  0
  4 21  1  0  0  0
 21 22  1  0  0  0
 22 23  1  0  0  0
 23 24  2  0  0  0
 24 25  1  0  0  0
 25 26  2  0  0  0
 26 27  1  0  0  0
 26 28  1  0  0  0
 28 29  2  0  0  0
  4  5  1  0  0  0
  5  6  2  0  0  0
  6  1  1  0  0  0
 29 23  1  0  0  0
 10 11  1  0  0  0
M  END
> <minimizedAffinity>
-6.22935

> <CNNscore>
0.3624383509

> <CNNaffinity>
6.0201678276

> <CNN_VS>
2.1819396019

> <CNNaffinity_variance>
0.1045667902

$$$$
[H]c1c([H])c(C([H])([H])Oc2c([H])c([H])c(N(C(=O)N([H])C([H])([H])C([H])([H])S(=O)(=O)C([H])([H])[H])C([H])(C([H])([H])[H])C([H])([H])[H])c([H])c2[H])c([H])c([H])c1F


 29 30  0  0  0  0  0  0  0  0999 V2000
   54.1856   -4.7348   -7.8415 C   0  0  0  0  0  0  0  0  0  0  0  0
   53.7549   -3.9595   -8.8980 C   0  0  0  0  0  0  0  0  0  0  0  0
   54.6133   -3.5673   -9.9154 C   0  0  0  0  0  0  0  0  0  0  0  0
   55.9377   -3.9432   -9.9039 C   0  0  0  0  0  0  0  0  0  0  0  0
   56.3672   -4.7195   -8.8452 C   0  0  0  0  0  0  0  0  0  0  0  0
   55.5126   -5.1110   -7.8306 C   0  0  0  0  0  0  0  0  0  0  0  0
   53.3066   -5.1475   -6.7809 N   0  0  0  0  0  0  0  0  0  0  0  0
   53.8423   -5.4994   -5.5119 C   0  0  0  0  0  0  0  0  0  0  0  0
   55.1125   -5.4245   -5.3646 O   0  0  0  0  0  0  0  0  0  0  0  0
   53.0765   -5.9251   -4.4040 N   0  0  0  0  0  0  0  0  0  0  0  0
   52.0450   -6.0117   -4.4470 H   0  0  0  0  0  0  0  0  0  0  0  0
   51.3733   -6.6196   -7.1206 C   0  0  0  0  0  0  0  0  0  0  0  0
   51.8736   -5.1912   -7.0392 C   0  0  0  0  0  0  0  0  0  0  0  0
   51.0972   -4.3707   -6.0677 C   0  0  0  0  0  0  0  0  0  0  0  0
   53.6950   -6.2702   -3.1307 C   0  0  0  0  0  0  0  0  0  0  0  0
   54.2769   -7.6542   -3.1670 C   0  0  0  0  0  0  0  0  0  0  0  0
   55.7475   -7.7200   -2.1798 S   0  0  0  0  0  0  0  0  0  0  0  0
   56.6909   -6.2239   -2.3250 C   0  0  0  0  0  0  0  0  0  0  0  0
   56.5751   -8.8730   -2.6513 O   0  0  0  0  0  0  0  0  0  0  0  0
   55.3762   -7.9512   -0.7331 O   0  0  0  0  0  0  0  0  0  0  0  0
   56.8498   -3.6018  -10.8633 O   0  0  0  0  0  0  0  0  0  0  0  0
   57.6530   -4.4857  -11.5947 C   0  0  0  0  0  0  0  0  0  0  0  0
   57.2923   -4.3361  -13.0289 C   0  0  0  0  0  0  0  0  0  0  0  0
   58.0183   -3.5037  -13.8547 C   0  0  0  0  0  0  0  0  0  0  0  0
   57.7063   -3.3438  -15.1922 C   0  0  0  0  0  0  0  0  0  0  0  0
   56.6398   -4.0256  -15.7470 C   0  0  0  0  0  0  0  0  0  0  0  0
   56.2803   -3.9144  -17.0488 F   0  0  0  0  0  0  0  0  0  0  0  0
   55.9102   -4.8566  -14.9346 C   0  0  0  0  0  0  0  0  0  0  0  0
   56.2213   -5.0194  -13.5903 C   0  0  0  0  0  0  0  0  0  0  0  0
 12 13  1  0  0  0
 13 14  1  0  0  0
 13  7  1  0  0  0
  7  8  1  0  0  0
  8  9  2  0  0  0
  8 10  1  0  0  0
 10 15  1  0  0  0
 15 16  1  0  0  0
 16 17  1  0  0  0
 17 18  1  0  0  0
 17 19  2  0  0  0
 17 20  2  0  0  0
  7  1  1  0  0  0
  1  2  2  0  0  0
  2  3  1  0  0  0
  3  4  2  0  0  0
  4 21  1  0  0  0
 21 22  1  0  0  0
 22 23  1  0  0  0
 23 24  2  0  0  0
 24 25  1  0  0  0
 25 26  2  0  0  0
 26 27  1  0  0  0
 26 28  1  0  0  0
 28 29  2  0  0  0
  4  5  1  0  0  0
  5  6  2  0  0  0
  6  1  1  0  0  0
 29 23  1  0  0  0
 10 11  1  0  0  0
M  END
> <minimizedAffinity>
-7.46774

> <CNNscore>
0.2964271307

> <CNNaffinity>
5.9728116989

> <CNN_VS>
1.7705034018

> <CNNaffinity_variance>
0.2062252015

$$$$
[H]c1c([H])c(C([H])([H])Oc2c([H])c([H])c(N(C(=O)N([H])C([H])([H])C([H])([H])S(=O)(=O)C([H])([H])[H])C([H])(C([H])([H])[H])C([H])([H])[H])c([H])c2[H])c([H])c([H])c1F


 29 30  0  0  0  0  0  0  0  0999 V2000
   55.1811   -5.0356   -7.2901 C   0  0  0  0  0  0  0  0  0  0  0  0
   54.9511   -6.3636   -6.9968 C   0  0  0  0  0  0  0  0  0  0  0  0
   55.2281   -6.8952   -5.7452 C   0  0  0  0  0  0  0  0  0  0  0  0
   55.7473   -6.1059   -4.7437 C   0  0  0  0  0  0  0  0  0  0  0  0
   55.9770   -4.7763   -5.0392 C   0  0  0  0  0  0  0  0  0  0  0  0
   55.7013   -4.2454   -6.2862 C   0  0  0  0  0  0  0  0  0  0  0  0
   54.8990   -4.4726   -8.5828 N   0  0  0  0  0  0  0  0  0  0  0  0
   55.8666   -4.5588   -9.6209 C   0  0  0  0  0  0  0  0  0  0  0  0
   56.9689   -5.1542   -9.3540 O   0  0  0  0  0  0  0  0  0  0  0  0
   55.7007   -4.0361  -10.9225 N   0  0  0  0  0  0  0  0  0  0  0  0
   54.8381   -3.5409  -11.2123 H   0  0  0  0  0  0  0  0  0  0  0  0
   52.5530   -4.3867   -7.8692 C   0  0  0  0  0  0  0  0  0  0  0  0
   53.6122   -3.8239   -8.7958 C   0  0  0  0  0  0  0  0  0  0  0  0
   53.7060   -2.3390   -8.7176 C   0  0  0  0  0  0  0  0  0  0  0  0
   56.7379   -4.1621  -11.9381 C   0  0  0  0  0  0  0  0  0  0  0  0
   56.5513   -3.1514  -13.0330 C   0  0  0  0  0  0  0  0  0  0  0  0
   56.5710   -3.9567  -14.6118 S   0  0  0  0  0  0  0  0  0  0  0  0
   55.9390   -5.6115  -14.5013 C   0  0  0  0  0  0  0  0  0  0  0  0
   57.9851   -4.0000  -15.0964 O   0  0  0  0  0  0  0  0  0  0  0  0
   55.7466   -3.1601  -15.5969 O   0  0  0  0  0  0  0  0  0  0  0  0
   56.0487   -6.5470   -3.4854 O   0  0  0  0  0  0  0  0  0  0  0  0
   55.5646   -6.0161   -2.2833 C   0  0  0  0  0  0  0  0  0  0  0  0
   56.7365   -5.5557   -1.4931 C   0  0  0  0  0  0  0  0  0  0  0  0
   57.8644   -5.0726   -2.1224 C   0  0  0  0  0  0  0  0  0  0  0  0
   58.9696   -4.6380   -1.4143 C   0  0  0  0  0  0  0  0  0  0  0  0
   58.9738   -4.6769   -0.0329 C   0  0  0  0  0  0  0  0  0  0  0  0
   60.0225   -4.2671    0.7210 F   0  0  0  0  0  0  0  0  0  0  0  0
   57.8567   -5.1559    0.6041 C   0  0  0  0  0  0  0  0  0  0  0  0
   56.7445   -5.5932   -0.1048 C   0  0  0  0  0  0  0  0  0  0  0  0
 12 13  1  0  0  0
 13 14  1  0  0  0
 13  7  1  0  0  0
  7  8  1  0  0  0
  8  9  2  0  0  0
  8 10  1  0  0  0
 10 15  1  0  0  0
 15 16  1  0  0  0
 16 17  1  0  0  0
 17 18  1  0  0  0
 17 19  2  0  0  0
 17 20  2  0  0  0
  7  1  1  0  0  0
  1  2  2  0  0  0
  2  3  1  0  0  0
  3  4  2  0  0  0
  4 21  1  0  0  0
 21 22  1  0  0  0
 22 23  1  0  0  0
 23 24  2  0  0  0
 24 25  1  0  0  0
 25 26  2  0  0  0
 26 27  1  0  0  0
 26 28  1  0  0  0
 28 29  2  0  0  0
  4  5  1  0  0  0
  5  6  2  0  0  0
  6  1  1  0  0  0
 29 23  1  0  0  0
 10 11  1  0  0  0
M  END
> <minimizedAffinity>
-6.20435

> <CNNscore>
0.2863400280

> <CNNaffinity>
5.8539142609

> <CNN_VS>
1.6762099266

> <CNNaffinity_variance>
0.1060867161

$$$$
[H]c1c([H])c(C([H])([H])Oc2c([H])c([H])c(N(C(=O)N([H])C([H])([H])C([H])([H])S(=O)(=O)C([H])([H])[H])C([H])(C([H])([H])[H])C([H])([H])[H])c([H])c2[H])c([H])c([H])c1F


 29 30  0  0  0  0  0  0  0  0999 V2000
   55.3958   -4.9596   -6.8587 C   0  0  0  0  0  0  0  0  0  0  0  0
   54.5629   -4.1839   -7.6379 C   0  0  0  0  0  0  0  0  0  0  0  0
   54.8925   -3.8374   -8.9407 C   0  0  0  0  0  0  0  0  0  0  0  0
   56.0747   -4.2612   -9.5048 C   0  0  0  0  0  0  0  0  0  0  0  0
   56.9076   -5.0379   -8.7231 C   0  0  0  0  0  0  0  0  0  0  0  0
   56.5801   -5.3839   -7.4246 C   0  0  0  0  0  0  0  0  0  0  0  0
   55.0664   -5.3252   -5.5076 N   0  0  0  0  0  0  0  0  0  0  0  0
   53.7136   -5.5777   -5.1505 C   0  0  0  0  0  0  0  0  0  0  0  0
   52.8294   -5.4729   -6.0714 O   0  0  0  0  0  0  0  0  0  0  0  0
   53.2751   -5.9349   -3.8563 N   0  0  0  0  0  0  0  0  0  0  0  0
   53.9305   -6.0377   -3.0606 H   0  0  0  0  0  0  0  0  0  0  0  0
   55.9379   -4.4633   -3.3821 C   0  0  0  0  0  0  0  0  0  0  0  0
   56.1422   -5.4305   -4.5310 C   0  0  0  0  0  0  0  0  0  0  0  0
   56.3507   -6.8305   -4.0660 C   0  0  0  0  0  0  0  0  0  0  0  0
   51.8690   -6.1795   -3.5627 C   0  0  0  0  0  0  0  0  0  0  0  0
   51.1552   -4.9028   -3.2228 C   0  0  0  0  0  0  0  0  0  0  0  0
   49.6838   -4.7518   -4.1995 S   0  0  0  0  0  0  0  0  0  0  0  0
   49.5860   -3.1605   -4.9791 C   0  0  0  0  0  0  0  0  0  0  0  0
   48.5044   -4.9330   -3.2981 O   0  0  0  0  0  0  0  0  0  0  0  0
   49.6603   -5.8376   -5.2506 O   0  0  0  0  0  0  0  0  0  0  0  0
   56.4767   -3.9666  -10.7777 O   0  0  0  0  0  0  0  0  0  0  0  0
   57.7382   -4.2245  -11.3287 C   0  0  0  0  0  0  0  0  0  0  0  0
   57.6692   -3.8982  -12.7773 C   0  0  0  0  0  0  0  0  0  0  0  0
   56.4607   -3.8944  -13.4416 C   0  0  0  0  0  0  0  0  0  0  0  0
   56.3653   -3.5955  -14.7882 C   0  0  0  0  0  0  0  0  0  0  0  0
   57.4982   -3.2875  -15.5173 C   0  0  0  0  0  0  0  0  0  0  0  0
   57.4751   -2.9859  -16.8382 F   0  0  0  0  0  0  0  0  0  0  0  0
   58.7064   -3.2884  -14.8666 C   0  0  0  0  0  0  0  0  0  0  0  0
   58.8053   -3.5882  -13.5135 C   0  0  0  0  0  0  0  0  0  0  0  0
 12 13  1  0  0  0
 13 14  1  0  0  0
 13  7  1  0  0  0
  7  8  1  0  0  0
  8  9  2  0  0  0
  8 10  1  0  0  0
 10 15  1  0  0  0
 15 16  1  0  0  0
 16 17  1  0  0  0
 17 18  1  0  0  0
 17 19  2  0  0  0
 17 20  2  0  0  0
  7  1  1  0  0  0
  1  2  2  0  0  0
  2  3  1  0  0  0
  3  4  2  0  0  0
  4 21  1  0  0  0
 21 22  1  0  0  0
 22 23  1  0  0  0
 23 24  2  0  0  0
 24 25  1  0  0  0
 25 26  2  0  0  0
 26 27  1  0  0  0
 26 28  1  0  0  0
 28 29  2  0  0  0
  4  5  1  0  0  0
  5  6  2  0  0  0
  6  1  1  0  0  0
 29 23  1  0  0  0
 10 11  1  0  0  0
M  END
> <minimizedAffinity>
-6.76411

> <CNNscore>
0.2573362589

> <CNNaffinity>
6.0722589493

> <CNN_VS>
1.5626124144

> <CNNaffinity_variance>
0.1750454158

$$$$
[H]c1c([H])c(C([H])([H])Oc2c([H])c([H])c(N(C(=O)N([H])C([H])([H])C([H])([H])S(=O)(=O)C([H])([H])[H])C([H])(C([H])([H])[H])C([H])([H])[H])c([H])c2[H])c([H])c([H])c1F


 29 30  0  0  0  0  0  0  0  0999 V2000
   54.3707   -4.6789   -7.9021 C   0  0  0  0  0  0  0  0  0  0  0  0
   55.7212   -4.9350   -7.7872 C   0  0  0  0  0  0  0  0  0  0  0  0
   56.6209   -4.5774   -8.7814 C   0  0  0  0  0  0  0  0  0  0  0  0
   56.1907   -3.9481   -9.9279 C   0  0  0  0  0  0  0  0  0  0  0  0
   54.8380   -3.6924  -10.0411 C   0  0  0  0  0  0  0  0  0  0  0  0
   53.9403   -4.0483   -9.0509 C   0  0  0  0  0  0  0  0  0  0  0  0
   53.4280   -5.0447   -6.8796 N   0  0  0  0  0  0  0  0  0  0  0  0
   53.8870   -5.3629   -5.5723 C   0  0  0  0  0  0  0  0  0  0  0  0
   55.1482   -5.3012   -5.3568 O   0  0  0  0  0  0  0  0  0  0  0  0
   53.0545   -5.7418   -4.4960 N   0  0  0  0  0  0  0  0  0  0  0  0
   52.0257   -5.8152   -4.5936 H   0  0  0  0  0  0  0  0  0  0  0  0
   51.4541   -6.4826   -7.1165 C   0  0  0  0  0  0  0  0  0  0  0  0
   52.0110   -5.0765   -7.2159 C   0  0  0  0  0  0  0  0  0  0  0  0
   51.2185   -4.0933   -6.4253 C   0  0  0  0  0  0  0  0  0  0  0  0
   53.5961   -6.0543   -3.1799 C   0  0  0  0  0  0  0  0  0  0  0  0
   53.2693   -7.4642   -2.7790 C   0  0  0  0  0  0  0  0  0  0  0  0
   51.8750   -7.4759   -1.6847 S   0  0  0  0  0  0  0  0  0  0  0  0
   52.3852   -7.3934    0.0132 C   0  0  0  0  0  0  0  0  0  0  0  0
   51.1149   -8.7439   -1.9104 O   0  0  0  0  0  0  0  0  0  0  0  0
   50.9712   -6.3072   -2.0035 O   0  0  0  0  0  0  0  0  0  0  0  0
   57.0068   -3.5623  -10.9544 O   0  0  0  0  0  0  0  0  0  0  0  0
   57.8109   -4.4028  -11.7343 C   0  0  0  0  0  0  0  0  0  0  0  0
   57.3632   -4.2677  -13.1453 C   0  0  0  0  0  0  0  0  0  0  0  0
   58.0499   -3.4607  -14.0280 C   0  0  0  0  0  0  0  0  0  0  0  0
   57.6571   -3.3149  -15.3456 C   0  0  0  0  0  0  0  0  0  0  0  0
   56.5464   -3.9854  -15.8217 C   0  0  0  0  0  0  0  0  0  0  0  0
   56.1077   -3.8869  -17.1000 F   0  0  0  0  0  0  0  0  0  0  0  0
   55.8553   -4.7913  -14.9522 C   0  0  0  0  0  0  0  0  0  0  0  0
   56.2476   -4.9399  -13.6277 C   0  0  0  0  0  0  0  0  0  0  0  0
 12 13  1  0  0  0
 13 14  1  0  0  0
 13  7  1  0  0  0
  7  8  1  0  0  0
  8  9  2  0  0  0
  8 10  1  0  0  0
 10 15  1  0  0  0
 15 16  1  0  0  0
 16 17  1  0  0  0
 17 18  1  0  0  0
 17 19  2  0  0  0
 17 20  2  0  0  0
  7  1  1  0  0  0
  1  2  2  0  0  0
  2  3  1  0  0  0
  3  4  2  0  0  0
  4 21  1  0  0  0
 21 22  1  0  0  0
 22 23  1  0  0  0
 23 24  2  0  0  0
 24 25  1  0  0  0
 25 26  2  0  0  0
 26 27  1  0  0  0
 26 28  1  0  0  0
 28 29  2  0  0  0
  4  5  1  0  0  0
  5  6  2  0  0  0
  6  1  1  0  0  0
 29 23  1  0  0  0
 10 11  1  0  0  0
M  END
> <minimizedAffinity>
-7.65879

> <CNNscore>
0.2551859021

> <CNNaffinity>
6.0590162277

> <CNN_VS>
1.5461754799

> <CNNaffinity_variance>
0.0495296530

$$$$
[H]c1c([H])c(C([H])([H])Oc2c([H])c([H])c(N(C(=O)N([H])C([H])([H])C([H])([H])S(=O)(=O)C([H])([H])[H])C([H])(C([H])([H])[H])C([H])([H])[H])c([H])c2[H])c([H])c([H])c1F


 29 30  0  0  0  0  0  0  0  0999 V2000
   54.5258   -3.8299   -8.6056 C   0  0  0  0  0  0  0  0  0  0  0  0
   53.8751   -2.6546   -8.9186 C   0  0  0  0  0  0  0  0  0  0  0  0
   52.5598   -2.4235   -8.5410 C   0  0  0  0  0  0  0  0  0  0  0  0
   51.8531   -3.3700   -7.8338 C   0  0  0  0  0  0  0  0  0  0  0  0
   52.5063   -4.5463   -7.5213 C   0  0  0  0  0  0  0  0  0  0  0  0
   53.8172   -4.7777   -7.8970 C   0  0  0  0  0  0  0  0  0  0  0  0
   55.8880   -4.0819   -8.9913 N   0  0  0  0  0  0  0  0  0  0  0  0
   56.2155   -4.2612  -10.3630 C   0  0  0  0  0  0  0  0  0  0  0  0
   55.2617   -4.1811  -11.2143 O   0  0  0  0  0  0  0  0  0  0  0  0
   57.5142   -4.5209  -10.8541 N   0  0  0  0  0  0  0  0  0  0  0  0
   58.3352   -4.6008  -10.2273 H   0  0  0  0  0  0  0  0  0  0  0  0
   56.4344   -3.4748   -6.6776 C   0  0  0  0  0  0  0  0  0  0  0  0
   56.9072   -4.1446   -7.9524 C   0  0  0  0  0  0  0  0  0  0  0  0
   57.3940   -5.5332   -7.7189 C   0  0  0  0  0  0  0  0  0  0  0  0
   57.7763   -4.6937  -12.2769 C   0  0  0  0  0  0  0  0  0  0  0  0
   57.4824   -3.4342  -13.0401 C   0  0  0  0  0  0  0  0  0  0  0  0
   56.8826   -3.8322  -14.6598 S   0  0  0  0  0  0  0  0  0  0  0  0
   58.0629   -3.3960  -15.9113 C   0  0  0  0  0  0  0  0  0  0  0  0
   55.6162   -3.0706  -14.8890 O   0  0  0  0  0  0  0  0  0  0  0  0
   56.5785   -5.3107  -14.7380 O   0  0  0  0  0  0  0  0  0  0  0  0
   50.5574   -3.2247   -7.4232 O   0  0  0  0  0  0  0  0  0  0  0  0
   49.6707   -4.2586   -7.0971 C   0  0  0  0  0  0  0  0  0  0  0  0
   49.9685   -4.6808   -5.7033 C   0  0  0  0  0  0  0  0  0  0  0  0
   49.5319   -3.9306   -4.6316 C   0  0  0  0  0  0  0  0  0  0  0  0
   49.7939   -4.2977   -3.3246 C   0  0  0  0  0  0  0  0  0  0  0  0
   50.5130   -5.4460   -3.0523 C   0  0  0  0  0  0  0  0  0  0  0  0
   50.8045   -5.8624   -1.7962 F   0  0  0  0  0  0  0  0  0  0  0  0
   50.9526   -6.2003   -4.1110 C   0  0  0  0  0  0  0  0  0  0  0  0
   50.6908   -5.8341   -5.4254 C   0  0  0  0  0  0  0  0  0  0  0  0
 12 13  1  0  0  0
 13 14  1  0  0  0
 13  7  1  0  0  0
  7  8  1  0  0  0
  8  9  2  0  0  0
  8 10  1  0  0  0
 10 15  1  0  0  0
 15 16  1  0  0  0
 16 17  1  0  0  0
 17 18  1  0  0  0
 17 19  2  0  0  0
 17 20  2  0  0  0
  7  1  1  0  0  0
  1  2  2  0  0  0
  2  3  1  0  0  0
  3  4  2  0  0  0
  4 21  1  0  0  0
 21 22  1  0  0  0
 22 23  1  0  0  0
 23 24  2  0  0  0
 24 25  1  0  0  0
 25 26  2  0  0  0
 26 27  1  0  0  0
 26 28  1  0  0  0
 28 29  2  0  0  0
  4  5  1  0  0  0
  5  6  2  0  0  0
  6  1  1  0  0  0
 29 23  1  0  0  0
 10 11  1  0  0  0
M  END
> <minimizedAffinity>
-8.16314

> <CNNscore>
0.2529830635

> <CNNaffinity>
6.2743916512

> <CNN_VS>
1.5873148441

> <CNNaffinity_variance>
0.0523756221

$$$$
[H]c1c([H])c(C([H])([H])Oc2c([H])c([H])c(N(C(=O)N([H])C([H])([H])C([H])([H])S(=O)(=O)C([H])([H])[H])C([H])(C([H])([H])[H])C([H])([H])[H])c([H])c2[H])c([H])c([H])c1F


 29 30  0  0  0  0  0  0  0  0999 V2000
   54.4480   -5.3205   -6.7982 C   0  0  0  0  0  0  0  0  0  0  0  0
   55.5664   -5.8717   -6.2082 C   0  0  0  0  0  0  0  0  0  0  0  0
   56.8222   -5.7794   -6.7918 C   0  0  0  0  0  0  0  0  0  0  0  0
   56.9952   -5.1274   -7.9920 C   0  0  0  0  0  0  0  0  0  0  0  0
   55.8741   -4.5761   -8.5812 C   0  0  0  0  0  0  0  0  0  0  0  0
   54.6221   -4.6674   -8.0006 C   0  0  0  0  0  0  0  0  0  0  0  0
   53.1414   -5.4095   -6.2044 N   0  0  0  0  0  0  0  0  0  0  0  0
   53.0109   -5.6494   -4.8092 C   0  0  0  0  0  0  0  0  0  0  0  0
   54.0880   -5.7712   -4.1266 O   0  0  0  0  0  0  0  0  0  0  0  0
   51.7818   -5.7633   -4.1226 N   0  0  0  0  0  0  0  0  0  0  0  0
   50.8697   -5.6778   -4.6065 H   0  0  0  0  0  0  0  0  0  0  0  0
   51.1108   -6.4927   -7.0548 C   0  0  0  0  0  0  0  0  0  0  0  0
   51.9735   -5.2466   -7.0597 C   0  0  0  0  0  0  0  0  0  0  0  0
   51.1987   -4.0167   -6.7329 C   0  0  0  0  0  0  0  0  0  0  0  0
   51.7241   -6.0100   -2.6878 C   0  0  0  0  0  0  0  0  0  0  0  0
   52.3225   -7.3432   -2.3416 C   0  0  0  0  0  0  0  0  0  0  0  0
   51.4441   -8.0681   -0.9834 S   0  0  0  0  0  0  0  0  0  0  0  0
   51.3132   -9.8287   -1.1643 C   0  0  0  0  0  0  0  0  0  0  0  0
   50.0728   -7.4728   -0.9432 O   0  0  0  0  0  0  0  0  0  0  0  0
   52.1521   -7.7391    0.3108 O   0  0  0  0  0  0  0  0  0  0  0  0
   58.1937   -4.9902   -8.6350 O   0  0  0  0  0  0  0  0  0  0  0  0
   58.5937   -5.6658   -9.7947 C   0  0  0  0  0  0  0  0  0  0  0  0
   59.8156   -6.4437   -9.4607 C   0  0  0  0  0  0  0  0  0  0  0  0
   60.7506   -5.9426   -8.5795 C   0  0  0  0  0  0  0  0  0  0  0  0
   61.8966   -6.6426   -8.2501 C   0  0  0  0  0  0  0  0  0  0  0  0
   62.1400   -7.8848   -8.8048 C   0  0  0  0  0  0  0  0  0  0  0  0
   63.2417   -8.6227   -8.5254 F   0  0  0  0  0  0  0  0  0  0  0  0
   61.2164   -8.3934   -9.6830 C   0  0  0  0  0  0  0  0  0  0  0  0
   60.0639   -7.6923  -10.0159 C   0  0  0  0  0  0  0  0  0  0  0  0
 12 13  1  0  0  0
 13 14  1  0  0  0
 13  7  1  0  0  0
  7  8  1  0  0  0
  8  9  2  0  0  0
  8 10  1  0  0  0
 10 15  1  0  0  0
 15 16  1  0  0  0
 16 17  1  0  0  0
 17 18  1  0  0  0
 17 19  2  0  0  0
 17 20  2  0  0  0
  7  1  1  0  0  0
  1  2  2  0  0  0
  2  3  1  0  0  0
  3  4  2  0  0  0
  4 21  1  0  0  0
 21 22  1  0  0  0
 22 23  1  0  0  0
 23 24  2  0  0  0
 24 25  1  0  0  0
 25 26  2  0  0  0
 26 27  1  0  0  0
 26 28  1  0  0  0
 28 29  2  0  0  0
  4  5  1  0  0  0
  5  6  2  0  0  0
  6  1  1  0  0  0
 29 23  1  0  0  0
 10 11  1  0  0  0
M  END
> <minimizedAffinity>
-6.81437

> <CNNscore>
0.2428482920

> <CNNaffinity>
5.4542417526

> <CNN_VS>
1.3245532513

> <CNNaffinity_variance>
0.2411929667

$$$$
[H]c1c([H])c(C([H])([H])Oc2c([H])c([H])c(N(C(=O)N([H])C([H])([H])C([H])([H])S(=O)(=O)C([H])([H])[H])C([H])(C([H])([H])[H])C([H])([H])[H])c([H])c2[H])c([H])c([H])c1F


 29 30  0  0  0  0  0  0  0  0999 V2000
   56.6546   -4.3582   -9.7357 C   0  0  0  0  0  0  0  0  0  0  0  0
   56.6186   -4.3858   -8.3571 C   0  0  0  0  0  0  0  0  0  0  0  0
   55.4347   -4.2184   -7.6526 C   0  0  0  0  0  0  0  0  0  0  0  0
   54.2439   -4.0172   -8.3136 C   0  0  0  0  0  0  0  0  0  0  0  0
   54.2819   -3.9900   -9.6941 C   0  0  0  0  0  0  0  0  0  0  0  0
   55.4612   -4.1566  -10.3973 C   0  0  0  0  0  0  0  0  0  0  0  0
   57.8745   -4.5298  -10.4775 N   0  0  0  0  0  0  0  0  0  0  0  0
   58.0462   -3.8676  -11.7238 C   0  0  0  0  0  0  0  0  0  0  0  0
   57.0873   -3.1250  -12.1361 O   0  0  0  0  0  0  0  0  0  0  0  0
   59.1953   -3.9693  -12.5388 N   0  0  0  0  0  0  0  0  0  0  0  0
   60.0103   -4.5512  -12.2730 H   0  0  0  0  0  0  0  0  0  0  0  0
   58.9668   -5.2780   -8.4118 C   0  0  0  0  0  0  0  0  0  0  0  0
   58.9142   -5.3860   -9.9227 C   0  0  0  0  0  0  0  0  0  0  0  0
   58.7958   -6.7962  -10.3887 C   0  0  0  0  0  0  0  0  0  0  0  0
   59.3020   -3.2600  -13.8070 C   0  0  0  0  0  0  0  0  0  0  0  0
   58.2612   -3.7310  -14.7818 C   0  0  0  0  0  0  0  0  0  0  0  0
   58.5616   -3.0236  -16.3790 S   0  0  0  0  0  0  0  0  0  0  0  0
   59.4413   -4.1511  -17.4301 C   0  0  0  0  0  0  0  0  0  0  0  0
   59.3764   -1.7832  -16.1946 O   0  0  0  0  0  0  0  0  0  0  0  0
   57.2464   -2.6471  -17.0215 O   0  0  0  0  0  0  0  0  0  0  0  0
   53.0350   -3.8437   -7.6995 O   0  0  0  0  0  0  0  0  0  0  0  0
   52.2147   -4.8552   -7.1843 C   0  0  0  0  0  0  0  0  0  0  0  0
   51.0771   -4.1982   -6.4888 C   0  0  0  0  0  0  0  0  0  0  0  0
   50.4413   -3.1110   -7.0505 C   0  0  0  0  0  0  0  0  0  0  0  0
   49.3811   -2.4791   -6.4272 C   0  0  0  0  0  0  0  0  0  0  0  0
   48.9224   -2.9277   -5.2031 C   0  0  0  0  0  0  0  0  0  0  0  0
   47.8895   -2.3548   -4.5389 F   0  0  0  0  0  0  0  0  0  0  0  0
   49.5476   -4.0089   -4.6347 C   0  0  0  0  0  0  0  0  0  0  0  0
   50.6130   -4.6460   -5.2587 C   0  0  0  0  0  0  0  0  0  0  0  0
 12 13  1  0  0  0
 13 14  1  0  0  0
 13  7  1  0  0  0
  7  8  1  0  0  0
  8  9  2  0  0  0
  8 10  1  0  0  0
 10 15  1  0  0  0
 15 16  1  0  0  0
 16 17  1  0  0  0
 17 18  1  0  0  0
 17 19  2  0  0  0
 17 20  2  0  0  0
  7  1  1  0  0  0
  1  2  2  0  0  0
  2  3  1  0  0  0
  3  4  2  0  0  0
  4 21  1  0  0  0
 21 22  1  0  0  0
 22 23  1  0  0  0
 23 24  2  0  0  0
 24 25  1  0  0  0
 25 26  2  0  0  0
 26 27  1  0  0  0
 26 28  1  0  0  0
 28 29  2  0  0  0
  4  5  1  0  0  0
  5  6  2  0  0  0
  6  1  1  0  0  0
 29 23  1  0  0  0
 10 11  1  0  0  0
M  END
> <minimizedAffinity>
-7.42365

> <CNNscore>
0.2321445048

> <CNNaffinity>
5.6594462395

> <CNN_VS>
1.3138093948

> <CNNaffinity_variance>
0.0938112736

$$$$
[H]C(=O)[C@@]([H])(N([H])C(=O)[C@@]1([H])N(C(=O)[C@@]([H])(N([H])C(=O)OC([H])([H])c2c([H])c([H])c([H])c([H])c2[H])C([H])(c2c([H])c([H])c([H])c([H])c2[H])c2c([H])c([H])c([H])c([H])c2[H])C([H])([H])C([H])([H])C1([H])[H])C([H])([H])C([H])([H])C([H])([H])[H]


 43 46  0  0  0  0  0  0  0  0999 V2000
   63.1797  -10.2178   -9.0729 C   0  0  0  0  0  0  0  0  0  0  0  0
   61.9421  -11.7870   -5.7012 C   0  0  0  0  0  0  0  0  0  0  0  0
   62.3222  -13.0745   -5.0899 C   0  0  0  0  0  0  0  0  0  0  0  0
   63.7153  -13.3511   -5.5308 C   0  0  0  0  0  0  0  0  0  0  0  0
   64.0433  -12.3055   -6.5440 C   0  0  0  0  0  0  0  0  0  0  0  0
   62.8902  -11.5263   -6.8193 N   0  0  0  0  0  0  0  0  0  0  0  0
   62.5129  -10.6571   -7.8517 C   0  0  0  0  0  0  0  0  0  0  0  0
   61.3090  -10.1196   -7.7146 O   0  0  0  0  0  0  0  0  0  0  0  0
   62.9249   -9.8506   -4.3282 N   0  0  0  0  0  0  0  0  0  0  0  0
   61.8754  -10.6872   -4.7500 C   0  0  0  0  0  0  0  0  0  0  0  0
   60.7232  -10.4537   -4.2417 O   0  0  0  0  0  0  0  0  0  0  0  0
   63.8866   -9.9659   -4.6760 H   0  0  0  0  0  0  0  0  0  0  0  0
   62.7104   -8.7498   -3.3556 C   0  0  0  0  0  0  0  0  0  0  0  0
   62.3771   -7.5143   -4.0775 C   0  0  0  0  0  0  0  0  0  0  0  0
   61.3628   -6.8943   -3.7028 O   0  0  0  0  0  0  0  0  0  0  0  0
   63.9529   -8.7126   -2.5335 C   0  0  0  0  0  0  0  0  0  0  0  0
   63.8901   -7.3544   -0.4099 C   0  0  0  0  0  0  0  0  0  0  0  0
   64.3009   -7.4548   -1.8447 C   0  0  0  0  0  0  0  0  0  0  0  0
   62.4568  -10.8886  -10.1915 N   0  0  0  0  0  0  0  0  0  0  0  0
   62.8455  -12.0995  -10.7664 C   0  0  0  0  0  0  0  0  0  0  0  0
   63.8446  -12.7255  -10.3801 O   0  0  0  0  0  0  0  0  0  0  0  0
   61.6276  -10.3778  -10.5193 H   0  0  0  0  0  0  0  0  0  0  0  0
   62.0870  -12.6148  -11.8011 O   0  0  0  0  0  0  0  0  0  0  0  0
   62.6589  -13.3393  -12.8330 C   0  0  0  0  0  0  0  0  0  0  0  0
   62.8116  -12.6468  -14.1137 C   0  0  0  0  0  0  0  0  0  0  0  0
   63.7217  -11.6365  -14.2185 C   0  0  0  0  0  0  0  0  0  0  0  0
   63.9179  -10.9386  -15.3806 C   0  0  0  0  0  0  0  0  0  0  0  0
   63.1838  -11.2515  -16.4887 C   0  0  0  0  0  0  0  0  0  0  0  0
   62.2368  -12.2892  -16.4137 C   0  0  0  0  0  0  0  0  0  0  0  0
   62.0686  -12.9669  -15.2281 C   0  0  0  0  0  0  0  0  0  0  0  0
   63.1984   -8.7966   -9.4363 C   0  0  0  0  0  0  0  0  0  0  0  0
   63.6763   -7.7663   -8.5263 C   0  0  0  0  0  0  0  0  0  0  0  0
   64.5302   -8.0418   -7.4661 C   0  0  0  0  0  0  0  0  0  0  0  0
   64.9749   -7.0218   -6.6587 C   0  0  0  0  0  0  0  0  0  0  0  0
   64.6011   -5.6973   -6.8598 C   0  0  0  0  0  0  0  0  0  0  0  0
   63.7603   -5.4067   -7.9004 C   0  0  0  0  0  0  0  0  0  0  0  0
   63.3180   -6.4248   -8.7037 C   0  0  0  0  0  0  0  0  0  0  0  0
   63.8367   -8.5448  -10.7883 C   0  0  0  0  0  0  0  0  0  0  0  0
   63.1075   -8.0441  -11.8405 C   0  0  0  0  0  0  0  0  0  0  0  0
   63.6782   -7.8241  -13.0843 C   0  0  0  0  0  0  0  0  0  0  0  0
   65.0058   -8.0989  -13.3187 C   0  0  0  0  0  0  0  0  0  0  0  0
   65.7518   -8.6036  -12.2674 C   0  0  0  0  0  0  0  0  0  0  0  0
   65.1621   -8.8213  -11.0162 C   0  0  0  0  0  0  0  0  0  0  0  0
 17 18  1  0  0  0
 18 16  1  0  0  0
 16 13  1  0  0  0
 13  9  1  0  0  0
  9 10  1  0  0  0
 10 11  2  0  0  0
 10  2  1  0  0  0
  2  3  1  0  0  0
  3  4  1  0  0  0
  4  5  1  0  0  0
  5  6  1  0  0  0
  6  7  1  0  0  0
  7  8  2  0  0  0
  7  1  1  0  0  0
  1 19  1  0  0  0
 19 20  1  0  0  0
 20 21  2  0  0  0
 20 23  1  0  0  0
 23 24  1  0  0  0
 24 25  1  0  0  0
 25 26  2  0  0  0
 26 27  1  0  0  0
 27 28  2  0  0  0
 28 29  1  0  0  0
 29 30  2  0  0  0
  1 31  1  0  0  0
 31 32  1  0  0  0
 32 33  2  0  0  0
 33 34  1  0  0  0
 34 35  2  0  0  0
 35 36  1  0  0  0
 36 37  2  0  0  0
 31 38  1  0  0  0
 38 39  2  0  0  0
 39 40  1  0  0  0
 40 41  2  0  0  0
 41 42  1  0  0  0
 42 43  2  0  0  0
 13 14  1  0  0  0
 14 15  2  0  0  0
  6  2  1  0  0  0
 30 25  1  0  0  0
 37 32  1  0  0  0
 43 38  1  0  0  0
  9 12  1  0  0  0
 19 22  1  0  0  0
M  END
> <minimizedAffinity>
-3.40253

> <CNNscore>
0.3738630414

> <CNNaffinity>
5.6516160965

> <CNN_VS>
2.1129302979

> <CNNaffinity_variance>
0.4597841203

$$$$
[H]C(=O)[C@@]([H])(N([H])C(=O)[C@@]1([H])N(C(=O)[C@@]([H])(N([H])C(=O)OC([H])([H])c2c([H])c([H])c([H])c([H])c2[H])C([H])(c2c([H])c([H])c([H])c([H])c2[H])c2c([H])c([H])c([H])c([H])c2[H])C([H])([H])C([H])([H])C1([H])[H])C([H])([H])C([H])([H])C([H])([H])[H]


 43 46  0  0  0  0  0  0  0  0999 V2000
   56.0944   -5.1026   -8.2189 C   0  0  0  0  0  0  0  0  0  0  0  0
   55.2445   -7.0680   -4.9360 C   0  0  0  0  0  0  0  0  0  0  0  0
   56.1686   -7.6924   -3.9707 C   0  0  0  0  0  0  0  0  0  0  0  0
   57.4205   -6.8910   -4.0125 C   0  0  0  0  0  0  0  0  0  0  0  0
   57.2589   -5.9308   -5.1436 C   0  0  0  0  0  0  0  0  0  0  0  0
   56.0579   -6.2129   -5.8439 N   0  0  0  0  0  0  0  0  0  0  0  0
   55.5546   -5.8807   -7.1088 C   0  0  0  0  0  0  0  0  0  0  0  0
   54.3498   -6.3660   -7.3736 O   0  0  0  0  0  0  0  0  0  0  0  0
   52.7723   -6.4738   -4.5675 N   0  0  0  0  0  0  0  0  0  0  0  0
   54.1490   -6.3429   -4.3091 C   0  0  0  0  0  0  0  0  0  0  0  0
   54.4807   -5.4884   -3.4145 O   0  0  0  0  0  0  0  0  0  0  0  0
   52.4106   -7.1293   -5.2736 H   0  0  0  0  0  0  0  0  0  0  0  0
   51.7560   -5.6747   -3.8379 C   0  0  0  0  0  0  0  0  0  0  0  0
   51.3157   -6.4109   -2.6450 C   0  0  0  0  0  0  0  0  0  0  0  0
   50.2024   -6.1107   -2.1719 O   0  0  0  0  0  0  0  0  0  0  0  0
   50.7020   -5.3746   -4.8479 C   0  0  0  0  0  0  0  0  0  0  0  0
   49.8913   -3.3533   -6.1190 C   0  0  0  0  0  0  0  0  0  0  0  0
   50.9814   -4.3467   -5.8692 C   0  0  0  0  0  0  0  0  0  0  0  0
   57.1474   -5.9584   -8.8376 N   0  0  0  0  0  0  0  0  0  0  0  0
   58.5194   -5.7505   -8.6883 C   0  0  0  0  0  0  0  0  0  0  0  0
   58.9780   -4.8169   -8.0120 O   0  0  0  0  0  0  0  0  0  0  0  0
   56.7778   -6.7346   -9.4005 H   0  0  0  0  0  0  0  0  0  0  0  0
   59.3927   -6.6182   -9.3173 O   0  0  0  0  0  0  0  0  0  0  0  0
   60.7606   -6.5493   -9.1146 C   0  0  0  0  0  0  0  0  0  0  0  0
   61.5806   -7.5196   -9.8421 C   0  0  0  0  0  0  0  0  0  0  0  0
   62.5027   -7.0693  -10.7404 C   0  0  0  0  0  0  0  0  0  0  0  0
   63.3023   -7.9150  -11.4626 C   0  0  0  0  0  0  0  0  0  0  0  0
   63.1873   -9.2647  -11.2908 C   0  0  0  0  0  0  0  0  0  0  0  0
   62.2458   -9.7614  -10.3710 C   0  0  0  0  0  0  0  0  0  0  0  0
   61.4605   -8.8798   -9.6644 C   0  0  0  0  0  0  0  0  0  0  0  0
   55.2289   -4.7057   -9.3350 C   0  0  0  0  0  0  0  0  0  0  0  0
   54.1552   -3.7355   -9.1810 C   0  0  0  0  0  0  0  0  0  0  0  0
   52.8248   -4.0457   -9.4316 C   0  0  0  0  0  0  0  0  0  0  0  0
   51.8492   -3.0967   -9.2373 C   0  0  0  0  0  0  0  0  0  0  0  0
   52.1400   -1.8120   -8.7909 C   0  0  0  0  0  0  0  0  0  0  0  0
   53.4459   -1.4882   -8.5381 C   0  0  0  0  0  0  0  0  0  0  0  0
   54.4167   -2.4355   -8.7327 C   0  0  0  0  0  0  0  0  0  0  0  0
   56.0103   -4.3299  -10.5788 C   0  0  0  0  0  0  0  0  0  0  0  0
   57.1790   -3.6107  -10.4981 C   0  0  0  0  0  0  0  0  0  0  0  0
   57.8930   -3.2498  -11.6300 C   0  0  0  0  0  0  0  0  0  0  0  0
   57.4594   -3.5987  -12.8883 C   0  0  0  0  0  0  0  0  0  0  0  0
   56.2837   -4.3234  -12.9837 C   0  0  0  0  0  0  0  0  0  0  0  0
   55.5725   -4.6808  -11.8318 C   0  0  0  0  0  0  0  0  0  0  0  0
 17 18  1  0  0  0
 18 16  1  0  0  0
 16 13  1  0  0  0
 13  9  1  0  0  0
  9 10  1  0  0  0
 10 11  2  0  0  0
 10  2  1  0  0  0
  2  3  1  0  0  0
  3  4  1  0  0  0
  4  5  1  0  0  0
  5  6  1  0  0  0
  6  7  1  0  0  0
  7  8  2  0  0  0
  7  1  1  0  0  0
  1 19  1  0  0  0
 19 20  1  0  0  0
 20 21  2  0  0  0
 20 23  1  0  0  0
 23 24  1  0  0  0
 24 25  1  0  0  0
 25 26  2  0  0  0
 26 27  1  0  0  0
 27 28  2  0  0  0
 28 29  1  0  0  0
 29 30  2  0  0  0
  1 31  1  0  0  0
 31 32  1  0  0  0
 32 33  2  0  0  0
 33 34  1  0  0  0
 34 35  2  0  0  0
 35 36  1  0  0  0
 36 37  2  0  0  0
 31 38  1  0  0  0
 38 39  2  0  0  0
 39 40  1  0  0  0
 40 41  2  0  0  0
 41 42  1  0  0  0
 42 43  2  0  0  0
 13 14  1  0  0  0
 14 15  2  0  0  0
  6  2  1  0  0  0
 30 25  1  0  0  0
 37 32  1  0  0  0
 43 38  1  0  0  0
  9 12  1  0  0  0
 19 22  1  0  0  0
M  END
> <minimizedAffinity>
-5.73996

> <CNNscore>
0.3675558269

> <CNNaffinity>
7.0308532715

> <CNN_VS>
2.5842311382

> <CNNaffinity_variance>
0.1568261385

$$$$
[H]C(=O)[C@@]([H])(N([H])C(=O)[C@@]1([H])N(C(=O)[C@@]([H])(N([H])C(=O)OC([H])([H])c2c([H])c([H])c([H])c([H])c2[H])C([H])(c2c([H])c([H])c([H])c([H])c2[H])c2c([H])c([H])c([H])c([H])c2[H])C([H])([H])C([H])([H])C1([H])[H])C([H])([H])C([H])([H])C([H])([H])[H]


 43 46  0  0  0  0  0  0  0  0999 V2000
   53.6203   -4.8046   -5.8558 C   0  0  0  0  0  0  0  0  0  0  0  0
   55.3531   -6.9740   -3.0893 C   0  0  0  0  0  0  0  0  0  0  0  0
   56.6787   -6.7890   -2.4694 C   0  0  0  0  0  0  0  0  0  0  0  0
   56.9537   -5.3279   -2.4994 C   0  0  0  0  0  0  0  0  0  0  0  0
   55.8592   -4.7181   -3.3104 C   0  0  0  0  0  0  0  0  0  0  0  0
   55.0467   -5.7404   -3.8647 N   0  0  0  0  0  0  0  0  0  0  0  0
   54.1154   -5.7994   -4.9101 C   0  0  0  0  0  0  0  0  0  0  0  0
   53.5662   -6.9909   -5.0997 O   0  0  0  0  0  0  0  0  0  0  0  0
   52.9608   -7.6204   -2.4113 N   0  0  0  0  0  0  0  0  0  0  0  0
   54.3068   -7.3163   -2.1370 C   0  0  0  0  0  0  0  0  0  0  0  0
   54.6568   -7.3470   -0.9053 O   0  0  0  0  0  0  0  0  0  0  0  0
   52.5855   -7.6145   -3.3695 H   0  0  0  0  0  0  0  0  0  0  0  0
   51.9986   -7.9687   -1.3358 C   0  0  0  0  0  0  0  0  0  0  0  0
   51.6123   -9.3808   -1.4605 C   0  0  0  0  0  0  0  0  0  0  0  0
   50.4514   -9.6834   -1.1223 O   0  0  0  0  0  0  0  0  0  0  0  0
   50.8961   -6.9745   -1.4665 C   0  0  0  0  0  0  0  0  0  0  0  0
   50.0876   -5.2867   -3.1565 C   0  0  0  0  0  0  0  0  0  0  0  0
   51.1598   -5.7284   -2.2117 C   0  0  0  0  0  0  0  0  0  0  0  0
   54.3264   -5.0814   -7.1398 N   0  0  0  0  0  0  0  0  0  0  0  0
   55.5440   -4.5073   -7.5085 C   0  0  0  0  0  0  0  0  0  0  0  0
   56.1464   -3.7057   -6.7780 O   0  0  0  0  0  0  0  0  0  0  0  0
   53.8353   -5.7441   -7.7526 H   0  0  0  0  0  0  0  0  0  0  0  0
   56.0933   -4.8480   -8.7306 O   0  0  0  0  0  0  0  0  0  0  0  0
   55.5327   -4.4263   -9.9243 C   0  0  0  0  0  0  0  0  0  0  0  0
   56.4486   -4.2525  -11.0531 C   0  0  0  0  0  0  0  0  0  0  0  0
   57.7768   -4.5070  -10.8764 C   0  0  0  0  0  0  0  0  0  0  0  0
   58.6953   -4.3623  -11.8821 C   0  0  0  0  0  0  0  0  0  0  0  0
   58.2853   -3.9482  -13.1171 C   0  0  0  0  0  0  0  0  0  0  0  0
   56.9216   -3.6779  -13.3322 C   0  0  0  0  0  0  0  0  0  0  0  0
   56.0294   -3.8350  -12.2965 C   0  0  0  0  0  0  0  0  0  0  0  0
   52.1974   -4.7639   -6.2106 C   0  0  0  0  0  0  0  0  0  0  0  0
   51.5782   -3.5930   -6.8136 C   0  0  0  0  0  0  0  0  0  0  0  0
   52.1308   -2.9317   -7.9028 C   0  0  0  0  0  0  0  0  0  0  0  0
   51.4834   -1.8498   -8.4510 C   0  0  0  0  0  0  0  0  0  0  0  0
   50.2735   -1.3771   -7.9541 C   0  0  0  0  0  0  0  0  0  0  0  0
   49.7134   -2.0168   -6.8811 C   0  0  0  0  0  0  0  0  0  0  0  0
   50.3604   -3.0947   -6.3361 C   0  0  0  0  0  0  0  0  0  0  0  0
   51.7563   -5.9761   -7.0073 C   0  0  0  0  0  0  0  0  0  0  0  0
   52.5651   -6.5310   -7.9704 C   0  0  0  0  0  0  0  0  0  0  0  0
   52.1653   -7.6303   -8.7141 C   0  0  0  0  0  0  0  0  0  0  0  0
   50.9354   -8.2151   -8.5179 C   0  0  0  0  0  0  0  0  0  0  0  0
   50.1108   -7.6660   -7.5509 C   0  0  0  0  0  0  0  0  0  0  0  0
   50.5277   -6.5552   -6.8072 C   0  0  0  0  0  0  0  0  0  0  0  0
 17 18  1  0  0  0
 18 16  1  0  0  0
 16 13  1  0  0  0
 13  9  1  0  0  0
  9 10  1  0  0  0
 10 11  2  0  0  0
 10  2  1  0  0  0
  2  3  1  0  0  0
  3  4  1  0  0  0
  4  5  1  0  0  0
  5  6  1  0  0  0
  6  7  1  0  0  0
  7  8  2  0  0  0
  7  1  1  0  0  0
  1 19  1  0  0  0
 19 20  1  0  0  0
 20 21  2  0  0  0
 20 23  1  0  0  0
 23 24  1  0  0  0
 24 25  1  0  0  0
 25 26  2  0  0  0
 26 27  1  0  0  0
 27 28  2  0  0  0
 28 29  1  0  0  0
 29 30  2  0  0  0
  1 31  1  0  0  0
 31 32  1  0  0  0
 32 33  2  0  0  0
 33 34  1  0  0  0
 34 35  2  0  0  0
 35 36  1  0  0  0
 36 37  2  0  0  0
 31 38  1  0  0  0
 38 39  2  0  0  0
 39 40  1  0  0  0
 40 41  2  0  0  0
 41 42  1  0  0  0
 42 43  2  0  0  0
 13 14  1  0  0  0
 14 15  2  0  0  0
  6  2  1  0  0  0
 30 25  1  0  0  0
 37 32  1  0  0  0
 43 38  1  0  0  0
  9 12  1  0  0  0
 19 22  1  0  0  0
M  END
> <minimizedAffinity>
-7.18912

> <CNNscore>
0.2977452278

> <CNNaffinity>
7.4423360825

> <CNN_VS>
2.2159199715

> <CNNaffinity_variance>
0.2549505234

$$$$
[H]C(=O)[C@@]([H])(N([H])C(=O)[C@@]1([H])N(C(=O)[C@@]([H])(N([H])C(=O)OC([H])([H])c2c([H])c([H])c([H])c([H])c2[H])C([H])(c2c([H])c([H])c([H])c([H])c2[H])c2c([H])c([H])c([H])c([H])c2[H])C([H])([H])C([H])([H])C1([H])[H])C([H])([H])C([H])([H])C([H])([H])[H]


 43 46  0  0  0  0  0  0  0  0999 V2000
   56.3680   -4.6182   -7.8273 C   0  0  0  0  0  0  0  0  0  0  0  0
   54.9979   -5.6888   -4.3146 C   0  0  0  0  0  0  0  0  0  0  0  0
   53.6424   -6.1456   -3.9546 C   0  0  0  0  0  0  0  0  0  0  0  0
   53.0922   -6.8144   -5.1634 C   0  0  0  0  0  0  0  0  0  0  0  0
   54.0741   -6.5615   -6.2586 C   0  0  0  0  0  0  0  0  0  0  0  0
   55.0856   -5.6784   -5.8009 N   0  0  0  0  0  0  0  0  0  0  0  0
   56.0438   -4.8701   -6.4271 C   0  0  0  0  0  0  0  0  0  0  0  0
   56.8180   -4.1820   -5.5998 O   0  0  0  0  0  0  0  0  0  0  0  0
   56.3033   -6.6425   -2.3178 N   0  0  0  0  0  0  0  0  0  0  0  0
   56.0595   -6.4662   -3.6922 C   0  0  0  0  0  0  0  0  0  0  0  0
   56.8624   -7.0618   -4.4928 O   0  0  0  0  0  0  0  0  0  0  0  0
   55.7161   -6.1978   -1.5991 H   0  0  0  0  0  0  0  0  0  0  0  0
   57.4224   -7.4807   -1.8191 C   0  0  0  0  0  0  0  0  0  0  0  0
   56.9170   -8.8135   -1.4626 C   0  0  0  0  0  0  0  0  0  0  0  0
   57.4684   -9.3922   -0.5062 O   0  0  0  0  0  0  0  0  0  0  0  0
   58.0307   -6.6931   -0.7097 C   0  0  0  0  0  0  0  0  0  0  0  0
   60.4464   -6.4365   -0.0334 C   0  0  0  0  0  0  0  0  0  0  0  0
   59.3310   -6.0366   -0.9463 C   0  0  0  0  0  0  0  0  0  0  0  0
   57.2391   -5.7523   -8.2505 N   0  0  0  0  0  0  0  0  0  0  0  0
   58.6163   -5.6536   -8.4550 C   0  0  0  0  0  0  0  0  0  0  0  0
   59.2350   -4.5903   -8.2947 O   0  0  0  0  0  0  0  0  0  0  0  0
   56.7360   -6.6379   -8.3865 H   0  0  0  0  0  0  0  0  0  0  0  0
   59.3096   -6.7830   -8.8489 O   0  0  0  0  0  0  0  0  0  0  0  0
   60.6570   -6.7378   -9.1640 C   0  0  0  0  0  0  0  0  0  0  0  0
   61.3826   -8.0085   -9.1226 C   0  0  0  0  0  0  0  0  0  0  0  0
   61.5484   -8.7170  -10.2760 C   0  0  0  0  0  0  0  0  0  0  0  0
   62.2103   -9.9155  -10.3164 C   0  0  0  0  0  0  0  0  0  0  0  0
   62.7320  -10.4382   -9.1678 C   0  0  0  0  0  0  0  0  0  0  0  0
   62.5785   -9.7315   -7.9610 C   0  0  0  0  0  0  0  0  0  0  0  0
   61.9069   -8.5306   -7.9612 C   0  0  0  0  0  0  0  0  0  0  0  0
   55.3039   -4.5652   -8.8358 C   0  0  0  0  0  0  0  0  0  0  0  0
   54.0881   -3.7885   -8.6450 C   0  0  0  0  0  0  0  0  0  0  0  0
   54.0166   -2.4298   -8.9243 C   0  0  0  0  0  0  0  0  0  0  0  0
   52.8309   -1.7547   -8.7554 C   0  0  0  0  0  0  0  0  0  0  0  0
   51.6740   -2.3841   -8.3083 C   0  0  0  0  0  0  0  0  0  0  0  0
   51.7253   -3.7233   -8.0286 C   0  0  0  0  0  0  0  0  0  0  0  0
   52.9082   -4.3941   -8.1973 C   0  0  0  0  0  0  0  0  0  0  0  0
   55.8274   -4.2616  -10.2260 C   0  0  0  0  0  0  0  0  0  0  0  0
   57.0247   -3.6124  -10.4125 C   0  0  0  0  0  0  0  0  0  0  0  0
   57.5050   -3.3173  -11.6788 C   0  0  0  0  0  0  0  0  0  0  0  0
   56.7996   -3.6643  -12.8080 C   0  0  0  0  0  0  0  0  0  0  0  0
   55.5920   -4.3187  -12.6343 C   0  0  0  0  0  0  0  0  0  0  0  0
   55.1188   -4.6100  -11.3491 C   0  0  0  0  0  0  0  0  0  0  0  0
 17 18  1  0  0  0
 18 16  1  0  0  0
 16 13  1  0  0  0
 13  9  1  0  0  0
  9 10  1  0  0  0
 10 11  2  0  0  0
 10  2  1  0  0  0
  2  3  1  0  0  0
  3  4  1  0  0  0
  4  5  1  0  0  0
  5  6  1  0  0  0
  6  7  1  0  0  0
  7  8  2  0  0  0
  7  1  1  0  0  0
  1 19  1  0  0  0
 19 20  1  0  0  0
 20 21  2  0  0  0
 20 23  1  0  0  0
 23 24  1  0  0  0
 24 25  1  0  0  0
 25 26  2  0  0  0
 26 27  1  0  0  0
 27 28  2  0  0  0
 28 29  1  0  0  0
 29 30  2  0  0  0
  1 31  1  0  0  0
 31 32  1  0  0  0
 32 33  2  0  0  0
 33 34  1  0  0  0
 34 35  2  0  0  0
 35 36  1  0  0  0
 36 37  2  0  0  0
 31 38  1  0  0  0
 38 39  2  0  0  0
 39 40  1  0  0  0
 40 41  2  0  0  0
 41 42  1  0  0  0
 42 43  2  0  0  0
 13 14  1  0  0  0
 14 15  2  0  0  0
  6  2  1  0  0  0
 30 25  1  0  0  0
 37 32  1  0  0  0
 43 38  1  0  0  0
  9 12  1  0  0  0
 19 22  1  0  0  0
M  END
> <minimizedAffinity>
-5.10557

> <CNNscore>
0.2933393717

> <CNNaffinity>
6.8176603317

> <CNN_VS>
1.9998881817

> <CNNaffinity_variance>
0.2288328111

$$$$
[H]C(=O)[C@@]([H])(N([H])C(=O)[C@@]1([H])N(C(=O)[C@@]([H])(N([H])C(=O)OC([H])([H])c2c([H])c([H])c([H])c([H])c2[H])C([H])(c2c([H])c([H])c([H])c([H])c2[H])c2c([H])c([H])c([H])c([H])c2[H])C([H])([H])C([H])([H])C1([H])[H])C([H])([H])C([H])([H])C([H])([H])[H]


 43 46  0  0  0  0  0  0  0  0999 V2000
   61.4970   -9.9640   -5.6900 C   0  0  0  0  0  0  0  0  0  0  0  0
   60.7711   -8.4853   -2.1335 C   0  0  0  0  0  0  0  0  0  0  0  0
   61.7295   -8.1325   -1.0693 C   0  0  0  0  0  0  0  0  0  0  0  0
   62.9900   -7.7420   -1.7550 C   0  0  0  0  0  0  0  0  0  0  0  0
   62.7904   -8.0606   -3.1994 C   0  0  0  0  0  0  0  0  0  0  0  0
   61.5541   -8.7337   -3.3753 N   0  0  0  0  0  0  0  0  0  0  0  0
   60.9977   -9.5206   -4.3927 C   0  0  0  0  0  0  0  0  0  0  0  0
   59.7749   -9.9680   -4.1445 O   0  0  0  0  0  0  0  0  0  0  0  0
   58.3267   -7.7019   -2.2428 N   0  0  0  0  0  0  0  0  0  0  0  0
   59.7168   -7.4989   -2.3191 C   0  0  0  0  0  0  0  0  0  0  0  0
   60.1036   -6.3058   -2.5784 O   0  0  0  0  0  0  0  0  0  0  0  0
   57.9213   -8.6272   -2.0463 H   0  0  0  0  0  0  0  0  0  0  0  0
   57.3585   -6.5942   -2.4411 C   0  0  0  0  0  0  0  0  0  0  0  0
   56.7230   -6.2616   -1.1588 C   0  0  0  0  0  0  0  0  0  0  0  0
   57.3776   -6.4945   -0.1239 O   0  0  0  0  0  0  0  0  0  0  0  0
   56.4461   -7.0667   -3.5206 C   0  0  0  0  0  0  0  0  0  0  0  0
   55.5603   -6.6779   -5.8493 C   0  0  0  0  0  0  0  0  0  0  0  0
   56.7217   -6.6437   -4.9072 C   0  0  0  0  0  0  0  0  0  0  0  0
   61.2272   -8.8401   -6.6323 N   0  0  0  0  0  0  0  0  0  0  0  0
   62.0429   -7.7162   -6.7716 C   0  0  0  0  0  0  0  0  0  0  0  0
   63.0799   -7.5642   -6.1077 O   0  0  0  0  0  0  0  0  0  0  0  0
   60.3699   -8.9561   -7.1869 H   0  0  0  0  0  0  0  0  0  0  0  0
   61.6783   -6.7425   -7.6828 O   0  0  0  0  0  0  0  0  0  0  0  0
   62.6132   -6.1035   -8.4795 C   0  0  0  0  0  0  0  0  0  0  0  0
   63.1522   -6.8724   -9.6026 C   0  0  0  0  0  0  0  0  0  0  0  0
   62.3025   -7.6164  -10.3672 C   0  0  0  0  0  0  0  0  0  0  0  0
   62.7320   -8.3657  -11.4302 C   0  0  0  0  0  0  0  0  0  0  0  0
   64.0586   -8.3817  -11.7535 C   0  0  0  0  0  0  0  0  0  0  0  0
   64.9611   -7.6245  -10.9847 C   0  0  0  0  0  0  0  0  0  0  0  0
   64.4911   -6.8845   -9.9241 C   0  0  0  0  0  0  0  0  0  0  0  0
   62.9201  -10.2718   -5.8700 C   0  0  0  0  0  0  0  0  0  0  0  0
   63.6854  -11.0217   -4.8851 C   0  0  0  0  0  0  0  0  0  0  0  0
   63.2058  -12.1812   -4.2896 C   0  0  0  0  0  0  0  0  0  0  0  0
   63.9877  -12.8657   -3.3895 C   0  0  0  0  0  0  0  0  0  0  0  0
   65.2653  -12.4411   -3.0405 C   0  0  0  0  0  0  0  0  0  0  0  0
   65.7550  -11.3004   -3.6179 C   0  0  0  0  0  0  0  0  0  0  0  0
   64.9740  -10.6196   -4.5146 C   0  0  0  0  0  0  0  0  0  0  0  0
   63.2251  -10.8623   -7.2327 C   0  0  0  0  0  0  0  0  0  0  0  0
   64.2465  -10.3722   -8.0114 C   0  0  0  0  0  0  0  0  0  0  0  0
   64.5241  -10.8955   -9.2645 C   0  0  0  0  0  0  0  0  0  0  0  0
   63.7850  -11.9334   -9.7838 C   0  0  0  0  0  0  0  0  0  0  0  0
   62.7533  -12.4365   -9.0098 C   0  0  0  0  0  0  0  0  0  0  0  0
   62.4839  -11.8978   -7.7457 C   0  0  0  0  0  0  0  0  0  0  0  0
 17 18  1  0  0  0
 18 16  1  0  0  0
 16 13  1  0  0  0
 13  9  1  0  0  0
  9 10  1  0  0  0
 10 11  2  0  0  0
 10  2  1  0  0  0
  2  3  1  0  0  0
  3  4  1  0  0  0
  4  5  1  0  0  0
  5  6  1  0  0  0
  6  7  1  0  0  0
  7  8  2  0  0  0
  7  1  1  0  0  0
  1 19  1  0  0  0
 19 20  1  0  0  0
 20 21  2  0  0  0
 20 23  1  0  0  0
 23 24  1  0  0  0
 24 25  1  0  0  0
 25 26  2  0  0  0
 26 27  1  0  0  0
 27 28  2  0  0  0
 28 29  1  0  0  0
 29 30  2  0  0  0
  1 31  1  0  0  0
 31 32  1  0  0  0
 32 33  2  0  0  0
 33 34  1  0  0  0
 34 35  2  0  0  0
 35 36  1  0  0  0
 36 37  2  0  0  0
 31 38  1  0  0  0
 38 39  2  0  0  0
 39 40  1  0  0  0
 40 41  2  0  0  0
 41 42  1  0  0  0
 42 43  2  0  0  0
 13 14  1  0  0  0
 14 15  2  0  0  0
  6  2  1  0  0  0
 30 25  1  0  0  0
 37 32  1  0  0  0
 43 38  1  0  0  0
  9 12  1  0  0  0
 19 22  1  0  0  0
M  END
> <minimizedAffinity>
-3.67804

> <CNNscore>
0.2675749958

> <CNNaffinity>
6.0395383835

> <CNN_VS>
1.6160295010

> <CNNaffinity_variance>
0.1807787716

$$$$
[H]C(=O)[C@@]([H])(N([H])C(=O)[C@@]1([H])N(C(=O)[C@@]([H])(N([H])C(=O)OC([H])([H])c2c([H])c([H])c([H])c([H])c2[H])C([H])(c2c([H])c([H])c([H])c([H])c2[H])c2c([H])c([H])c([H])c([H])c2[H])C([H])([H])C([H])([H])C1([H])[H])C([H])([H])C([H])([H])C([H])([H])[H]


 43 46  0  0  0  0  0  0  0  0999 V2000
   56.9303   -4.8181   -8.6633 C   0  0  0  0  0  0  0  0  0  0  0  0
   55.3730   -5.8411   -5.2150 C   0  0  0  0  0  0  0  0  0  0  0  0
   53.9501   -5.9291   -4.8366 C   0  0  0  0  0  0  0  0  0  0  0  0
   53.2079   -6.2723   -6.0787 C   0  0  0  0  0  0  0  0  0  0  0  0
   54.2010   -6.1888   -7.1898 C   0  0  0  0  0  0  0  0  0  0  0  0
   55.4330   -5.6889   -6.6950 N   0  0  0  0  0  0  0  0  0  0  0  0
   56.5726   -5.1229   -7.2820 C   0  0  0  0  0  0  0  0  0  0  0  0
   57.5277   -4.7824   -6.4281 O   0  0  0  0  0  0  0  0  0  0  0  0
   57.4441   -6.8999   -4.1240 N   0  0  0  0  0  0  0  0  0  0  0  0
   56.1754   -6.9544   -4.7294 C   0  0  0  0  0  0  0  0  0  0  0  0
   55.6611   -8.1193   -4.8677 O   0  0  0  0  0  0  0  0  0  0  0  0
   57.9396   -6.0099   -3.9768 H   0  0  0  0  0  0  0  0  0  0  0  0
   58.1469   -8.1224   -3.6600 C   0  0  0  0  0  0  0  0  0  0  0  0
   57.8468   -8.3527   -2.2402 C   0  0  0  0  0  0  0  0  0  0  0  0
   57.7314   -9.5372   -1.8696 O   0  0  0  0  0  0  0  0  0  0  0  0
   59.5807   -7.8957   -3.9974 C   0  0  0  0  0  0  0  0  0  0  0  0
   61.5994   -9.1415   -3.1420 C   0  0  0  0  0  0  0  0  0  0  0  0
   60.4673   -9.0693   -4.1170 C   0  0  0  0  0  0  0  0  0  0  0  0
   57.7267   -5.9848   -9.1412 N   0  0  0  0  0  0  0  0  0  0  0  0
   59.1193   -6.0625   -9.0879 C   0  0  0  0  0  0  0  0  0  0  0  0
   59.8165   -5.1459   -8.6266 O   0  0  0  0  0  0  0  0  0  0  0  0
   57.1584   -6.7497   -9.5258 H   0  0  0  0  0  0  0  0  0  0  0  0
   59.7374   -7.2027   -9.5666 O   0  0  0  0  0  0  0  0  0  0  0  0
   61.1160   -7.3080   -9.6398 C   0  0  0  0  0  0  0  0  0  0  0  0
   61.7700   -8.0914   -8.5901 C   0  0  0  0  0  0  0  0  0  0  0  0
   62.4988   -7.4455   -7.6353 C   0  0  0  0  0  0  0  0  0  0  0  0
   63.1435   -8.1092   -6.6255 C   0  0  0  0  0  0  0  0  0  0  0  0
   63.0656   -9.4706   -6.5542 C   0  0  0  0  0  0  0  0  0  0  0  0
   62.3210  -10.1668   -7.5237 C   0  0  0  0  0  0  0  0  0  0  0  0
   61.6876   -9.4643   -8.5230 C   0  0  0  0  0  0  0  0  0  0  0  0
   55.8846   -4.6368   -9.6763 C   0  0  0  0  0  0  0  0  0  0  0  0
   54.7201   -3.7935   -9.4512 C   0  0  0  0  0  0  0  0  0  0  0  0
   53.4334   -4.1871   -9.7953 C   0  0  0  0  0  0  0  0  0  0  0  0
   52.3673   -3.3610   -9.5286 C   0  0  0  0  0  0  0  0  0  0  0  0
   52.5218   -2.1220   -8.9159 C   0  0  0  0  0  0  0  0  0  0  0  0
   53.7828   -1.7174   -8.5690 C   0  0  0  0  0  0  0  0  0  0  0  0
   54.8440   -2.5422   -8.8360 C   0  0  0  0  0  0  0  0  0  0  0  0
   56.4443   -4.2892  -11.0418 C   0  0  0  0  0  0  0  0  0  0  0  0
   55.7961   -4.6616  -12.1955 C   0  0  0  0  0  0  0  0  0  0  0  0
   56.3068   -4.3613  -13.4486 C   0  0  0  0  0  0  0  0  0  0  0  0
   57.4902   -3.6738  -13.5906 C   0  0  0  0  0  0  0  0  0  0  0  0
   58.1532   -3.2927  -12.4365 C   0  0  0  0  0  0  0  0  0  0  0  0
   57.6258   -3.6032  -11.1772 C   0  0  0  0  0  0  0  0  0  0  0  0
 17 18  1  0  0  0
 18 16  1  0  0  0
 16 13  1  0  0  0
 13  9  1  0  0  0
  9 10  1  0  0  0
 10 11  2  0  0  0
 10  2  1  0  0  0
  2  3  1  0  0  0
  3  4  1  0  0  0
  4  5  1  0  0  0
  5  6  1  0  0  0
  6  7  1  0  0  0
  7  8  2  0  0  0
  7  1  1  0  0  0
  1 19  1  0  0  0
 19 20  1  0  0  0
 20 21  2  0  0  0
 20 23  1  0  0  0
 23 24  1  0  0  0
 24 25  1  0  0  0
 25 26  2  0  0  0
 26 27  1  0  0  0
 27 28  2  0  0  0
 28 29  1  0  0  0
 29 30  2  0  0  0
  1 31  1  0  0  0
 31 32  1  0  0  0
 32 33  2  0  0  0
 33 34  1  0  0  0
 34 35  2  0  0  0
 35 36  1  0  0  0
 36 37  2  0  0  0
 31 38  1  0  0  0
 38 39  2  0  0  0
 39 40  1  0  0  0
 40 41  2  0  0  0
 41 42  1  0  0  0
 42 43  2  0  0  0
 13 14  1  0  0  0
 14 15  2  0  0  0
  6  2  1  0  0  0
 30 25  1  0  0  0
 37 32  1  0  0  0
 43 38  1  0  0  0
  9 12  1  0  0  0
 19 22  1  0  0  0
M  END
> <minimizedAffinity>
-5.85493

> <CNNscore>
0.2542844415

> <CNNaffinity>
6.5737900734

> <CNN_VS>
1.6716125011

> <CNNaffinity_variance>
0.3309581876

$$$$
[H]C(=O)[C@@]([H])(N([H])C(=O)[C@@]1([H])N(C(=O)[C@@]([H])(N([H])C(=O)OC([H])([H])c2c([H])c([H])c([H])c([H])c2[H])C([H])(c2c([H])c([H])c([H])c([H])c2[H])c2c([H])c([H])c([H])c([H])c2[H])C([H])([H])C([H])([H])C1([H])[H])C([H])([H])C([H])([H])C([H])([H])[H]


 43 46  0  0  0  0  0  0  0  0999 V2000
   54.2565   -5.2105   -5.5314 C   0  0  0  0  0  0  0  0  0  0  0  0
   56.0600   -7.7127   -3.1130 C   0  0  0  0  0  0  0  0  0  0  0  0
   57.4485   -7.6754   -2.6168 C   0  0  0  0  0  0  0  0  0  0  0  0
   57.8370   -6.2407   -2.5702 C   0  0  0  0  0  0  0  0  0  0  0  0
   56.7242   -5.4899   -3.2224 C   0  0  0  0  0  0  0  0  0  0  0  0
   55.7831   -6.4027   -3.7643 N   0  0  0  0  0  0  0  0  0  0  0  0
   54.7560   -6.3104   -4.7130 C   0  0  0  0  0  0  0  0  0  0  0  0
   54.0967   -7.4395   -4.9312 O   0  0  0  0  0  0  0  0  0  0  0  0
   53.6938   -8.2064   -2.2424 N   0  0  0  0  0  0  0  0  0  0  0  0
   55.0834   -8.0508   -2.0878 C   0  0  0  0  0  0  0  0  0  0  0  0
   55.5478   -8.2308   -0.9078 O   0  0  0  0  0  0  0  0  0  0  0  0
   53.2287   -8.0750   -3.1510 H   0  0  0  0  0  0  0  0  0  0  0  0
   52.8120   -8.5696   -1.1047 C   0  0  0  0  0  0  0  0  0  0  0  0
   51.9328   -9.6788   -1.4992 C   0  0  0  0  0  0  0  0  0  0  0  0
   50.7044   -9.4909   -1.4028 O   0  0  0  0  0  0  0  0  0  0  0  0
   52.1322   -7.3000   -0.7216 C   0  0  0  0  0  0  0  0  0  0  0  0
   53.3187   -5.0833   -0.9139 C   0  0  0  0  0  0  0  0  0  0  0  0
   52.9298   -6.2488   -0.0608 C   0  0  0  0  0  0  0  0  0  0  0  0
   55.1921   -5.1107   -6.6884 N   0  0  0  0  0  0  0  0  0  0  0  0
   56.1904   -4.1433   -6.8126 C   0  0  0  0  0  0  0  0  0  0  0  0
   56.3809   -3.2735   -5.9487 O   0  0  0  0  0  0  0  0  0  0  0  0
   55.0423   -5.8266   -7.4102 H   0  0  0  0  0  0  0  0  0  0  0  0
   56.9921   -4.1601   -7.9389 O   0  0  0  0  0  0  0  0  0  0  0  0
   56.8292   -5.1078   -8.9350 C   0  0  0  0  0  0  0  0  0  0  0  0
   57.1475   -4.6851  -10.3000 C   0  0  0  0  0  0  0  0  0  0  0  0
   56.1517   -4.1969  -11.0937 C   0  0  0  0  0  0  0  0  0  0  0  0
   56.3702   -3.7870  -12.3822 C   0  0  0  0  0  0  0  0  0  0  0  0
   57.6269   -3.8617  -12.9111 C   0  0  0  0  0  0  0  0  0  0  0  0
   58.6764   -4.3603  -12.1180 C   0  0  0  0  0  0  0  0  0  0  0  0
   58.4170   -4.7625  -10.8279 C   0  0  0  0  0  0  0  0  0  0  0  0
   52.9207   -5.2828   -6.1336 C   0  0  0  0  0  0  0  0  0  0  0  0
   51.7047   -5.0956   -5.3561 C   0  0  0  0  0  0  0  0  0  0  0  0
   51.5498   -5.6077   -4.0744 C   0  0  0  0  0  0  0  0  0  0  0  0
   50.3902   -5.3709   -3.3750 C   0  0  0  0  0  0  0  0  0  0  0  0
   49.3421   -4.6249   -3.9037 C   0  0  0  0  0  0  0  0  0  0  0  0
   49.4771   -4.1116   -5.1656 C   0  0  0  0  0  0  0  0  0  0  0  0
   50.6337   -4.3491   -5.8611 C   0  0  0  0  0  0  0  0  0  0  0  0
   52.7959   -4.4403   -7.3879 C   0  0  0  0  0  0  0  0  0  0  0  0
   53.2409   -4.9001   -8.6046 C   0  0  0  0  0  0  0  0  0  0  0  0
   53.1447   -4.1320   -9.7544 C   0  0  0  0  0  0  0  0  0  0  0  0
   52.5963   -2.8705   -9.7256 C   0  0  0  0  0  0  0  0  0  0  0  0
   52.1440   -2.3952   -8.5065 C   0  0  0  0  0  0  0  0  0  0  0  0
   52.2480   -3.1820   -7.3529 C   0  0  0  0  0  0  0  0  0  0  0  0
 17 18  1  0  0  0
 18 16  1  0  0  0
 16 13  1  0  0  0
 13  9  1  0  0  0
  9 10  1  0  0  0
 10 11  2  0  0  0
 10  2  1  0  0  0
  2  3  1  0  0  0
  3  4  1  0  0  0
  4  5  1  0  0  0
  5  6  1  0  0  0
  6  7  1  0  0  0
  7  8  2  0  0  0
  7  1  1  0  0  0
  1 19  1  0  0  0
 19 20  1  0  0  0
 20 21  2  0  0  0
 20 23  1  0  0  0
 23 24  1  0  0  0
 24 25  1  0  0  0
 25 26  2  0  0  0
 26 27  1  0  0  0
 27 28  2  0  0  0
 28 29  1  0  0  0
 29 30  2  0  0  0
  1 31  1  0  0  0
 31 32  1  0  0  0
 32 33  2  0  0  0
 33 34  1  0  0  0
 34 35  2  0  0  0
 35 36  1  0  0  0
 36 37  2  0  0  0
 31 38  1  0  0  0
 38 39  2  0  0  0
 39 40  1  0  0  0
 40 41  2  0  0  0
 41 42  1  0  0  0
 42 43  2  0  0  0
 13 14  1  0  0  0
 14 15  2  0  0  0
  6  2  1  0  0  0
 30 25  1  0  0  0
 37 32  1  0  0  0
 43 38  1  0  0  0
  9 12  1  0  0  0
 19 22  1  0  0  0
M  END
> <minimizedAffinity>
-8.61131

> <CNNscore>
0.2099774778

> <CNNaffinity>
7.2314620018

> <CNN_VS>
1.5184441805

> <CNNaffinity_variance>
0.1720583886

$$$$
[H]C(=O)[C@@]([H])(N([H])C(=O)[C@@]1([H])N(C(=O)[C@@]([H])(N([H])C(=O)OC([H])([H])c2c([H])c([H])c([H])c([H])c2[H])C([H])(c2c([H])c([H])c([H])c([H])c2[H])c2c([H])c([H])c([H])c([H])c2[H])C([H])([H])C([H])([H])C1([H])[H])C([H])([H])C([H])([H])C([H])([H])[H]


 43 46  0  0  0  0  0  0  0  0999 V2000
   57.0192   -4.1039   -8.1897 C   0  0  0  0  0  0  0  0  0  0  0  0
   54.4711   -5.4686   -5.5426 C   0  0  0  0  0  0  0  0  0  0  0  0
   53.1294   -6.0398   -5.7645 C   0  0  0  0  0  0  0  0  0  0  0  0
   53.1629   -6.6751   -7.1086 C   0  0  0  0  0  0  0  0  0  0  0  0
   54.4717   -6.2911   -7.7146 C   0  0  0  0  0  0  0  0  0  0  0  0
   55.1381   -5.3666   -6.8698 N   0  0  0  0  0  0  0  0  0  0  0  0
   56.1911   -4.4581   -7.0417 C   0  0  0  0  0  0  0  0  0  0  0  0
   56.5115   -3.7659   -5.9576 O   0  0  0  0  0  0  0  0  0  0  0  0
   56.2173   -5.6885   -3.6710 N   0  0  0  0  0  0  0  0  0  0  0  0
   55.2637   -6.2038   -4.5678 C   0  0  0  0  0  0  0  0  0  0  0  0
   55.0644   -7.4681   -4.5210 O   0  0  0  0  0  0  0  0  0  0  0  0
   56.4501   -4.6865   -3.6398 H   0  0  0  0  0  0  0  0  0  0  0  0
   56.9469   -6.5578   -2.7140 C   0  0  0  0  0  0  0  0  0  0  0  0
   56.8533   -5.9881   -1.3629 C   0  0  0  0  0  0  0  0  0  0  0  0
   56.4107   -4.8269   -1.2662 O   0  0  0  0  0  0  0  0  0  0  0  0
   58.3209   -6.6846   -3.2770 C   0  0  0  0  0  0  0  0  0  0  0  0
   60.2185   -8.1080   -4.1325 C   0  0  0  0  0  0  0  0  0  0  0  0
   58.8044   -8.0276   -3.6516 C   0  0  0  0  0  0  0  0  0  0  0  0
   57.5181   -5.3962   -8.7419 N   0  0  0  0  0  0  0  0  0  0  0  0
   58.8634   -5.7646   -8.7908 C   0  0  0  0  0  0  0  0  0  0  0  0
   59.7675   -5.0283   -8.3669 O   0  0  0  0  0  0  0  0  0  0  0  0
   56.7769   -6.0135   -9.0963 H   0  0  0  0  0  0  0  0  0  0  0  0
   59.1940   -6.9938   -9.3305 O   0  0  0  0  0  0  0  0  0  0  0  0
   60.4601   -7.2551   -9.8261 C   0  0  0  0  0  0  0  0  0  0  0  0
   61.2867   -8.1850   -9.0547 C   0  0  0  0  0  0  0  0  0  0  0  0
   61.6533   -9.3721   -9.6173 C   0  0  0  0  0  0  0  0  0  0  0  0
   62.4202  -10.2951   -8.9570 C   0  0  0  0  0  0  0  0  0  0  0  0
   62.8445  -10.0354   -7.6854 C   0  0  0  0  0  0  0  0  0  0  0  0
   62.4839   -8.8194   -7.0767 C   0  0  0  0  0  0  0  0  0  0  0  0
   61.7120   -7.9176   -7.7726 C   0  0  0  0  0  0  0  0  0  0  0  0
   56.4323   -3.4058   -9.3389 C   0  0  0  0  0  0  0  0  0  0  0  0
   56.7221   -3.7875  -10.7130 C   0  0  0  0  0  0  0  0  0  0  0  0
   55.7823   -4.3968  -11.5344 C   0  0  0  0  0  0  0  0  0  0  0  0
   56.1033   -4.7052  -12.8352 C   0  0  0  0  0  0  0  0  0  0  0  0
   57.3534   -4.4284  -13.3783 C   0  0  0  0  0  0  0  0  0  0  0  0
   58.2923   -3.8274  -12.5837 C   0  0  0  0  0  0  0  0  0  0  0  0
   57.9705   -3.5212  -11.2875 C   0  0  0  0  0  0  0  0  0  0  0  0
   54.9305   -3.2363   -9.2181 C   0  0  0  0  0  0  0  0  0  0  0  0
   54.3837   -2.1622   -8.5570 C   0  0  0  0  0  0  0  0  0  0  0  0
   53.0124   -2.0057   -8.4286 C   0  0  0  0  0  0  0  0  0  0  0  0
   52.1368   -2.9238   -8.9609 C   0  0  0  0  0  0  0  0  0  0  0  0
   52.6743   -4.0104   -9.6294 C   0  0  0  0  0  0  0  0  0  0  0  0
   54.0616   -4.1560   -9.7511 C   0  0  0  0  0  0  0  0  0  0  0  0
 17 18  1  0  0  0
 18 16  1  0  0  0
 16 13  1  0  0  0
 13  9  1  0  0  0
  9 10  1  0  0  0
 10 11  2  0  0  0
 10  2  1  0  0  0
  2  3  1  0  0  0
  3  4  1  0  0  0
  4  5  1  0  0  0
  5  6  1  0  0  0
  6  7  1  0  0  0
  7  8  2  0  0  0
  7  1  1  0  0  0
  1 19  1  0  0  0
 19 20  1  0  0  0
 20 21  2  0  0  0
 20 23  1  0  0  0
 23 24  1  0  0  0
 24 25  1  0  0  0
 25 26  2  0  0  0
 26 27  1  0  0  0
 27 28  2  0  0  0
 28 29  1  0  0  0
 29 30  2  0  0  0
  1 31  1  0  0  0
 31 32  1  0  0  0
 32 33  2  0  0  0
 33 34  1  0  0  0
 34 35  2  0  0  0
 35 36  1  0  0  0
 36 37  2  0  0  0
 31 38  1  0  0  0
 38 39  2  0  0  0
 39 40  1  0  0  0
 40 41  2  0  0  0
 41 42  1  0  0  0
 42 43  2  0  0  0
 13 14  1  0  0  0
 14 15  2  0  0  0
  6  2  1  0  0  0
 30 25  1  0  0  0
 37 32  1  0  0  0
 43 38  1  0  0  0
  9 12  1  0  0  0
 19 22  1  0  0  0
M  END
> <minimizedAffinity>
-4.67155

> <CNNscore>
0.2080161572

> <CNNaffinity>
6.5235381126

> <CNN_VS>
1.3570013046

> <CNNaffinity_variance>
0.4062304497

$$$$
[H]C(=O)[C@@]([H])(N([H])C(=O)[C@@]1([H])N(C(=O)[C@@]([H])(N([H])C(=O)OC([H])([H])c2c([H])c([H])c([H])c([H])c2[H])C([H])(c2c([H])c([H])c([H])c([H])c2[H])c2c([H])c([H])c([H])c([H])c2[H])C([H])([H])C([H])([H])C1([H])[H])C([H])([H])C([H])([H])C([H])([H])[H]


 43 46  0  0  0  0  0  0  0  0999 V2000
   56.3030   -5.0014   -7.9043 C   0  0  0  0  0  0  0  0  0  0  0  0
   55.6371   -6.1153   -4.2059 C   0  0  0  0  0  0  0  0  0  0  0  0
   56.1600   -5.5272   -2.9584 C   0  0  0  0  0  0  0  0  0  0  0  0
   56.3736   -4.0819   -3.2353 C   0  0  0  0  0  0  0  0  0  0  0  0
   56.1467   -3.9038   -4.6997 C   0  0  0  0  0  0  0  0  0  0  0  0
   55.9505   -5.1685   -5.3116 N   0  0  0  0  0  0  0  0  0  0  0  0
   56.0062   -5.6442   -6.6285 C   0  0  0  0  0  0  0  0  0  0  0  0
   55.7469   -6.9370   -6.7648 O   0  0  0  0  0  0  0  0  0  0  0  0
   53.1529   -5.6255   -3.7705 N   0  0  0  0  0  0  0  0  0  0  0  0
   54.2240   -6.4589   -4.1410 C   0  0  0  0  0  0  0  0  0  0  0  0
   53.9234   -7.6614   -4.4634 O   0  0  0  0  0  0  0  0  0  0  0  0
   53.2969   -4.6461   -3.4890 H   0  0  0  0  0  0  0  0  0  0  0  0
   51.7486   -6.1068   -3.7625 C   0  0  0  0  0  0  0  0  0  0  0  0
   51.0046   -5.4696   -4.8577 C   0  0  0  0  0  0  0  0  0  0  0  0
   50.2269   -4.5447   -4.5524 O   0  0  0  0  0  0  0  0  0  0  0  0
   51.2521   -5.8283   -2.3852 C   0  0  0  0  0  0  0  0  0  0  0  0
   51.5320   -8.2919   -1.9257 C   0  0  0  0  0  0  0  0  0  0  0  0
   50.9757   -6.9719   -1.4945 C   0  0  0  0  0  0  0  0  0  0  0  0
   57.2837   -5.8932   -8.5875 N   0  0  0  0  0  0  0  0  0  0  0  0
   58.6600   -5.6650   -8.6285 C   0  0  0  0  0  0  0  0  0  0  0  0
   59.1846   -4.6806   -8.0854 O   0  0  0  0  0  0  0  0  0  0  0  0
   56.8592   -6.7117   -9.0412 H   0  0  0  0  0  0  0  0  0  0  0  0
   59.4616   -6.5708   -9.2982 O   0  0  0  0  0  0  0  0  0  0  0  0
   60.8425   -6.5274   -9.2082 C   0  0  0  0  0  0  0  0  0  0  0  0
   61.4859   -7.6185   -8.4742 C   0  0  0  0  0  0  0  0  0  0  0  0
   62.0608   -7.3579   -7.2653 C   0  0  0  0  0  0  0  0  0  0  0  0
   62.6857   -8.3242   -6.5225 C   0  0  0  0  0  0  0  0  0  0  0  0
   62.7459   -9.6046   -6.9931 C   0  0  0  0  0  0  0  0  0  0  0  0
   62.1619   -9.9065   -8.2369 C   0  0  0  0  0  0  0  0  0  0  0  0
   61.5432   -8.9081   -8.9537 C   0  0  0  0  0  0  0  0  0  0  0  0
   55.2386   -4.7877   -8.8911 C   0  0  0  0  0  0  0  0  0  0  0  0
   54.0562   -3.9904   -8.6009 C   0  0  0  0  0  0  0  0  0  0  0  0
   53.9397   -2.6593   -8.9798 C   0  0  0  0  0  0  0  0  0  0  0  0
   52.7847   -1.9654   -8.7069 C   0  0  0  0  0  0  0  0  0  0  0  0
   51.7035   -2.5484   -8.0548 C   0  0  0  0  0  0  0  0  0  0  0  0
   51.7999   -3.8599   -7.6743 C   0  0  0  0  0  0  0  0  0  0  0  0
   52.9520   -4.5496   -7.9470 C   0  0  0  0  0  0  0  0  0  0  0  0
   55.7695   -4.3443  -10.2403 C   0  0  0  0  0  0  0  0  0  0  0  0
   55.1008   -4.6416  -11.4040 C   0  0  0  0  0  0  0  0  0  0  0  0
   55.5852   -4.2534  -12.6433 C   0  0  0  0  0  0  0  0  0  0  0  0
   56.7620   -3.5502  -12.7609 C   0  0  0  0  0  0  0  0  0  0  0  0
   57.4455   -3.2442  -11.5966 C   0  0  0  0  0  0  0  0  0  0  0  0
   56.9446   -3.6431  -10.3513 C   0  0  0  0  0  0  0  0  0  0  0  0
 17 18  1  0  0  0
 18 16  1  0  0  0
 16 13  1  0  0  0
 13  9  1  0  0  0
  9 10  1  0  0  0
 10 11  2  0  0  0
 10  2  1  0  0  0
  2  3  1  0  0  0
  3  4  1  0  0  0
  4  5  1  0  0  0
  5  6  1  0  0  0
  6  7  1  0  0  0
  7  8  2  0  0  0
  7  1  1  0  0  0
  1 19  1  0  0  0
 19 20  1  0  0  0
 20 21  2  0  0  0
 20 23  1  0  0  0
 23 24  1  0  0  0
 24 25  1  0  0  0
 25 26  2  0  0  0
 26 27  1  0  0  0
 27 28  2  0  0  0
 28 29  1  0  0  0
 29 30  2  0  0  0
  1 31  1  0  0  0
 31 32  1  0  0  0
 32 33  2  0  0  0
 33 34  1  0  0  0
 34 35  2  0  0  0
 35 36  1  0  0  0
 36 37  2  0  0  0
 31 38  1  0  0  0
 38 39  2  0  0  0
 39 40  1  0  0  0
 40 41  2  0  0  0
 41 42  1  0  0  0
 42 43  2  0  0  0
 13 14  1  0  0  0
 14 15  2  0  0  0
  6  2  1  0  0  0
 30 25  1  0  0  0
 37 32  1  0  0  0
 43 38  1  0  0  0
  9 12  1  0  0  0
 19 22  1  0  0  0
M  END
> <minimizedAffinity>
-6.13746

> <CNNscore>
0.1817235053

> <CNNaffinity>
6.9052324295

> <CNN_VS>
1.2548429966

> <CNNaffinity_variance>
0.1530659348

$$$$
[H]c1nc2c([H])c([H])c(C(=O)OC([H])([H])C([H])([H])[H])c([H])c2s1


 14 15  0  0  0  0  0  0  0  0999 V2000
   50.1541   -3.4430   -5.9311 C   0  0  0  0  0  0  0  0  0  0  0  0
   49.8845   -2.3393   -6.7015 C   0  0  0  0  0  0  0  0  0  0  0  0
   50.5787   -1.9581   -7.7992 C   0  0  0  0  0  0  0  0  0  0  0  0
   51.6798   -2.7285   -8.2256 C   0  0  0  0  0  0  0  0  0  0  0  0
   52.4335   -2.4771   -9.2619 N   0  0  0  0  0  0  0  0  0  0  0  0
   53.4402   -3.2774   -9.5597 C   0  0  0  0  0  0  0  0  0  0  0  0
   53.3360   -4.4539   -8.3251 S   0  0  0  0  0  0  0  0  0  0  0  0
   51.9812   -3.8387   -7.4824 C   0  0  0  0  0  0  0  0  0  0  0  0
   51.2322   -4.1987   -6.3472 C   0  0  0  0  0  0  0  0  0  0  0  0
   49.3851   -3.8256   -4.7532 C   0  0  0  0  0  0  0  0  0  0  0  0
   48.5783   -3.0194   -4.2228 O   0  0  0  0  0  0  0  0  0  0  0  0
   49.4958   -5.0700   -4.1635 O   0  0  0  0  0  0  0  0  0  0  0  0
   51.3976   -5.9424   -3.0769 C   0  0  0  0  0  0  0  0  0  0  0  0
   50.0779   -5.2315   -2.8809 C   0  0  0  0  0  0  0  0  0  0  0  0
 13 14  1  0  0  0
 14 12  1  0  0  0
 12 10  1  0  0  0
 10 11  2  0  0  0
 10  1  1  0  0  0
  1  2  2  0  0  0
  2  3  1  0  0  0
  3  4  2  0  0  0
  4  5  1  0  0  0
  5  6  2  0  0  0
  6  7  1  0  0  0
  7  8  1  0  0  0
  8  9  2  0  0  0
  9  1  1  0  0  0
  8  4  1  0  0  0
M  END
> <minimizedAffinity>
-7.12604

> <CNNscore>
0.9164813757

> <CNNaffinity>
5.6498985291

> <CNN_VS>
5.1780266762

> <CNNaffinity_variance>
0.1834105253

$$$$
[H]c1nc2c([H])c([H])c(C(=O)OC([H])([H])C([H])([H])[H])c([H])c2s1


 14 15  0  0  0  0  0  0  0  0999 V2000
   54.3156   -3.7982   -8.5575 C   0  0  0  0  0  0  0  0  0  0  0  0
   54.8942   -4.2326   -7.3910 C   0  0  0  0  0  0  0  0  0  0  0  0
   56.1321   -4.7686   -7.2796 C   0  0  0  0  0  0  0  0  0  0  0  0
   56.9317   -4.9129   -8.4317 C   0  0  0  0  0  0  0  0  0  0  0  0
   58.1382   -5.4114   -8.4677 N   0  0  0  0  0  0  0  0  0  0  0  0
   58.7878   -5.4940   -9.6139 C   0  0  0  0  0  0  0  0  0  0  0  0
   57.6548   -4.8390  -10.7124 S   0  0  0  0  0  0  0  0  0  0  0  0
   56.3894   -4.4907   -9.6164 C   0  0  0  0  0  0  0  0  0  0  0  0
   55.0973   -3.9387   -9.6870 C   0  0  0  0  0  0  0  0  0  0  0  0
   52.9779   -3.2248   -8.6427 C   0  0  0  0  0  0  0  0  0  0  0  0
   52.6663   -2.4588   -9.5904 O   0  0  0  0  0  0  0  0  0  0  0  0
   51.9956   -3.4843   -7.7065 O   0  0  0  0  0  0  0  0  0  0  0  0
   50.0805   -3.1430   -6.3744 C   0  0  0  0  0  0  0  0  0  0  0  0
   50.8774   -2.6267   -7.5508 C   0  0  0  0  0  0  0  0  0  0  0  0
 13 14  1  0  0  0
 14 12  1  0  0  0
 12 10  1  0  0  0
 10 11  2  0  0  0
 10  1  1  0  0  0
  1  2  2  0  0  0
  2  3  1  0  0  0
  3  4  2  0  0  0
  4  5  1  0  0  0
  5  6  2  0  0  0
  6  7  1  0  0  0
  7  8  1  0  0  0
  8  9  2  0  0  0
  9  1  1  0  0  0
  8  4  1  0  0  0
M  END
> <minimizedAffinity>
-6.49505

> <CNNscore>
0.8799355626

> <CNNaffinity>
4.8789815903

> <CNN_VS>
4.2931895256

> <CNNaffinity_variance>
0.1483644396

$$$$
[H]c1nc2c([H])c([H])c(C(=O)OC([H])([H])C([H])([H])[H])c([H])c2s1


 14 15  0  0  0  0  0  0  0  0999 V2000
   51.4288   -3.3016   -7.5046 C   0  0  0  0  0  0  0  0  0  0  0  0
   50.3709   -2.4575   -7.2752 C   0  0  0  0  0  0  0  0  0  0  0  0
   49.5152   -2.5357   -6.2293 C   0  0  0  0  0  0  0  0  0  0  0  0
   49.6851   -3.5536   -5.2688 C   0  0  0  0  0  0  0  0  0  0  0  0
   48.9365   -3.7442   -4.2159 N   0  0  0  0  0  0  0  0  0  0  0  0
   49.1985   -4.7373   -3.3867 C   0  0  0  0  0  0  0  0  0  0  0  0
   50.5700   -5.4531   -4.1118 S   0  0  0  0  0  0  0  0  0  0  0  0
   50.7305   -4.4170   -5.4625 C   0  0  0  0  0  0  0  0  0  0  0  0
   51.5967   -4.2992   -6.5648 C   0  0  0  0  0  0  0  0  0  0  0  0
   52.3326   -3.1891   -8.6429 C   0  0  0  0  0  0  0  0  0  0  0  0
   52.2930   -2.1839   -9.3979 O   0  0  0  0  0  0  0  0  0  0  0  0
   53.2656   -4.1602   -8.9516 O   0  0  0  0  0  0  0  0  0  0  0  0
   55.2938   -3.5154   -7.9372 C   0  0  0  0  0  0  0  0  0  0  0  0
   54.6106   -3.8253   -9.2497 C   0  0  0  0  0  0  0  0  0  0  0  0
 13 14  1  0  0  0
 14 12  1  0  0  0
 12 10  1  0  0  0
 10 11  2  0  0  0
 10  1  1  0  0  0
  1  2  2  0  0  0
  2  3  1  0  0  0
  3  4  2  0  0  0
  4  5  1  0  0  0
  5  6  2  0  0  0
  6  7  1  0  0  0
  7  8  1  0  0  0
  8  9  2  0  0  0
  9  1  1  0  0  0
  8  4  1  0  0  0
M  END
> <minimizedAffinity>
-7.14560

> <CNNscore>
0.8184957504

> <CNNaffinity>
5.4007043839

> <CNN_VS>
4.4204535484

> <CNNaffinity_variance>
0.1505221426

$$$$
[H]c1nc2c([H])c([H])c(C(=O)OC([H])([H])C([H])([H])[H])c([H])c2s1


 14 15  0  0  0  0  0  0  0  0999 V2000
   50.1641   -3.6214   -5.8238 C   0  0  0  0  0  0  0  0  0  0  0  0
   49.8473   -2.5044   -6.5560 C   0  0  0  0  0  0  0  0  0  0  0  0
   50.5095   -2.0701   -7.6537 C   0  0  0  0  0  0  0  0  0  0  0  0
   51.6254   -2.7935   -8.1220 C   0  0  0  0  0  0  0  0  0  0  0  0
   52.3521   -2.4888   -9.1633 N   0  0  0  0  0  0  0  0  0  0  0  0
   53.3768   -3.2488   -9.5023 C   0  0  0  0  0  0  0  0  0  0  0  0
   53.3307   -4.4636   -8.3017 S   0  0  0  0  0  0  0  0  0  0  0  0
   51.9737   -3.9153   -7.4177 C   0  0  0  0  0  0  0  0  0  0  0  0
   51.2568   -4.3311   -6.2809 C   0  0  0  0  0  0  0  0  0  0  0  0
   49.4286   -4.0618   -4.6446 C   0  0  0  0  0  0  0  0  0  0  0  0
   49.5478   -5.2380   -4.2151 O   0  0  0  0  0  0  0  0  0  0  0  0
   48.5758   -3.2298   -3.9451 O   0  0  0  0  0  0  0  0  0  0  0  0
   46.3962   -3.8966   -3.3424 C   0  0  0  0  0  0  0  0  0  0  0  0
   47.2158   -3.0826   -4.3177 C   0  0  0  0  0  0  0  0  0  0  0  0
 13 14  1  0  0  0
 14 12  1  0  0  0
 12 10  1  0  0  0
 10 11  2  0  0  0
 10  1  1  0  0  0
  1  2  2  0  0  0
  2  3  1  0  0  0
  3  4  2  0  0  0
  4  5  1  0  0  0
  5  6  2  0  0  0
  6  7  1  0  0  0
  7  8  1  0  0  0
  8  9  2  0  0  0
  9  1  1  0  0  0
  8  4  1  0  0  0
M  END
> <minimizedAffinity>
-6.66409

> <CNNscore>
0.7922894359

> <CNNaffinity>
5.3700442314

> <CNN_VS>
4.2546291351

> <CNNaffinity_variance>
0.1030113474

$$$$
[H]c1nc2c([H])c([H])c(C(=O)OC([H])([H])C([H])([H])[H])c([H])c2s1


 14 15  0  0  0  0  0  0  0  0999 V2000
   55.3803   -4.5421   -8.5825 C   0  0  0  0  0  0  0  0  0  0  0  0
   56.6240   -5.0454   -8.2927 C   0  0  0  0  0  0  0  0  0  0  0  0
   57.6656   -5.1119   -9.1547 C   0  0  0  0  0  0  0  0  0  0  0  0
   57.5068   -4.6363  -10.4724 C   0  0  0  0  0  0  0  0  0  0  0  0
   58.4236   -4.6399  -11.4023 N   0  0  0  0  0  0  0  0  0  0  0  0
   58.1519   -4.1646  -12.6034 C   0  0  0  0  0  0  0  0  0  0  0  0
   56.5219   -3.6815  -12.4339 S   0  0  0  0  0  0  0  0  0  0  0  0
   56.2791   -4.1260  -10.8008 C   0  0  0  0  0  0  0  0  0  0  0  0
   55.2230   -4.0759   -9.8727 C   0  0  0  0  0  0  0  0  0  0  0  0
   54.2788   -4.4852   -7.6292 C   0  0  0  0  0  0  0  0  0  0  0  0
   54.4161   -4.9316   -6.4613 O   0  0  0  0  0  0  0  0  0  0  0  0
   53.0460   -3.9486   -7.9469 O   0  0  0  0  0  0  0  0  0  0  0  0
   50.9837   -3.0166   -7.2859 C   0  0  0  0  0  0  0  0  0  0  0  0
   51.8986   -4.2133   -7.1574 C   0  0  0  0  0  0  0  0  0  0  0  0
 13 14  1  0  0  0
 14 12  1  0  0  0
 12 10  1  0  0  0
 10 11  2  0  0  0
 10  1  1  0  0  0
  1  2  2  0  0  0
  2  3  1  0  0  0
  3  4  2  0  0  0
  4  5  1  0  0  0
  5  6  2  0  0  0
  6  7  1  0  0  0
  7  8  1  0  0  0
  8  9  2  0  0  0
  9  1  1  0  0  0
  8  4  1  0  0  0
M  END
> <minimizedAffinity>
-6.13919

> <CNNscore>
0.7691070437

> <CNNaffinity>
4.3827123642

> <CNN_VS>
3.3707749844

> <CNNaffinity_variance>
0.2865448296

$$$$
[H]c1nc2c([H])c([H])c(C(=O)OC([H])([H])C([H])([H])[H])c([H])c2s1


 14 15  0  0  0  0  0  0  0  0999 V2000
   53.6687   -3.8028   -8.4796 C   0  0  0  0  0  0  0  0  0  0  0  0
   53.1189   -2.6405   -8.9602 C   0  0  0  0  0  0  0  0  0  0  0  0
   51.9399   -2.1060   -8.5643 C   0  0  0  0  0  0  0  0  0  0  0  0
   51.1771   -2.7632   -7.5775 C   0  0  0  0  0  0  0  0  0  0  0  0
   50.0280   -2.3608   -7.1053 N   0  0  0  0  0  0  0  0  0  0  0  0
   49.4079   -3.0668   -6.1781 C   0  0  0  0  0  0  0  0  0  0  0  0
   50.4858   -4.3719   -5.9453 S   0  0  0  0  0  0  0  0  0  0  0  0
   51.6923   -3.9274   -7.0726 C   0  0  0  0  0  0  0  0  0  0  0  0
   52.9228   -4.4478   -7.5131 C   0  0  0  0  0  0  0  0  0  0  0  0
   54.9426   -4.3514   -8.9285 C   0  0  0  0  0  0  0  0  0  0  0  0
   55.7155   -4.9259   -8.1194 O   0  0  0  0  0  0  0  0  0  0  0  0
   55.3657   -4.2735  -10.2414 O   0  0  0  0  0  0  0  0  0  0  0  0
   56.8650   -3.7886  -11.9950 C   0  0  0  0  0  0  0  0  0  0  0  0
   56.7428   -4.2989  -10.5773 C   0  0  0  0  0  0  0  0  0  0  0  0
 13 14  1  0  0  0
 14 12  1  0  0  0
 12 10  1  0  0  0
 10 11  2  0  0  0
 10  1  1  0  0  0
  1  2  2  0  0  0
  2  3  1  0  0  0
  3  4  2  0  0  0
  4  5  1  0  0  0
  5  6  2  0  0  0
  6  7  1  0  0  0
  7  8  1  0  0  0
  8  9  2  0  0  0
  9  1  1  0  0  0
  8  4  1  0  0  0
M  END
> <minimizedAffinity>
-6.65898

> <CNNscore>
0.6976889372

> <CNNaffinity>
4.9229431152

> <CNN_VS>
3.4346828461

> <CNNaffinity_variance>
0.0930536985

$$$$
[H]c1nc2c([H])c([H])c(C(=O)OC([H])([H])C([H])([H])[H])c([H])c2s1


 14 15  0  0  0  0  0  0  0  0999 V2000
   51.9235   -3.7199   -7.5626 C   0  0  0  0  0  0  0  0  0  0  0  0
   52.2737   -4.8647   -6.8911 C   0  0  0  0  0  0  0  0  0  0  0  0
   51.6520   -5.3531   -5.7924 C   0  0  0  0  0  0  0  0  0  0  0  0
   50.5465   -4.6617   -5.2562 C   0  0  0  0  0  0  0  0  0  0  0  0
   49.8574   -5.0187   -4.2059 N   0  0  0  0  0  0  0  0  0  0  0  0
   48.8384   -4.2841   -3.8001 C   0  0  0  0  0  0  0  0  0  0  0  0
   48.8344   -3.0177   -4.9470 S   0  0  0  0  0  0  0  0  0  0  0  0
   50.1657   -3.5136   -5.8985 C   0  0  0  0  0  0  0  0  0  0  0  0
   50.8409   -3.0414   -7.0389 C   0  0  0  0  0  0  0  0  0  0  0  0
   52.6156   -3.2213   -8.7448 C   0  0  0  0  0  0  0  0  0  0  0  0
   52.4157   -2.0511   -9.1606 O   0  0  0  0  0  0  0  0  0  0  0  0
   53.5124   -3.9893   -9.4620 O   0  0  0  0  0  0  0  0  0  0  0  0
   55.5914   -4.5962   -8.5301 C   0  0  0  0  0  0  0  0  0  0  0  0
   54.8934   -3.6709   -9.5008 C   0  0  0  0  0  0  0  0  0  0  0  0
 13 14  1  0  0  0
 14 12  1  0  0  0
 12 10  1  0  0  0
 10 11  2  0  0  0
 10  1  1  0  0  0
  1  2  2  0  0  0
  2  3  1  0  0  0
  3  4  2  0  0  0
  4  5  1  0  0  0
  5  6  2  0  0  0
  6  7  1  0  0  0
  7  8  1  0  0  0
  8  9  2  0  0  0
  9  1  1  0  0  0
  8  4  1  0  0  0
M  END
> <minimizedAffinity>
-6.68382

> <CNNscore>
0.6809045076

> <CNNaffinity>
5.2657804489

> <CNN_VS>
3.5854935646

> <CNNaffinity_variance>
0.1520610154

$$$$
[H]c1nc2c([H])c([H])c(C(=O)OC([H])([H])C([H])([H])[H])c([H])c2s1


 14 15  0  0  0  0  0  0  0  0999 V2000
   52.1344   -4.2248   -7.2600 C   0  0  0  0  0  0  0  0  0  0  0  0
   51.4518   -3.1297   -7.7280 C   0  0  0  0  0  0  0  0  0  0  0  0
   50.3588   -2.5785   -7.1501 C   0  0  0  0  0  0  0  0  0  0  0  0
   49.8415   -3.1426   -5.9661 C   0  0  0  0  0  0  0  0  0  0  0  0
   48.7986   -2.7142   -5.3072 N   0  0  0  0  0  0  0  0  0  0  0  0
   48.4106   -3.3303   -4.2062 C   0  0  0  0  0  0  0  0  0  0  0  0
   49.5644   -4.5836   -4.0750 S   0  0  0  0  0  0  0  0  0  0  0  0
   50.4952   -4.2376   -5.4670 C   0  0  0  0  0  0  0  0  0  0  0  0
   51.6290   -4.7786   -6.1004 C   0  0  0  0  0  0  0  0  0  0  0  0
   53.3099   -4.7938   -7.9077 C   0  0  0  0  0  0  0  0  0  0  0  0
   53.8233   -5.8612   -7.4845 O   0  0  0  0  0  0  0  0  0  0  0  0
   53.9155   -4.2056   -9.0014 O   0  0  0  0  0  0  0  0  0  0  0  0
   56.2226   -4.2216   -9.4869 C   0  0  0  0  0  0  0  0  0  0  0  0
   55.0944   -3.4299   -8.8656 C   0  0  0  0  0  0  0  0  0  0  0  0
 13 14  1  0  0  0
 14 12  1  0  0  0
 12 10  1  0  0  0
 10 11  2  0  0  0
 10  1  1  0  0  0
  1  2  2  0  0  0
  2  3  1  0  0  0
  3  4  2  0  0  0
  4  5  1  0  0  0
  5  6  2  0  0  0
  6  7  1  0  0  0
  7  8  1  0  0  0
  8  9  2  0  0  0
  9  1  1  0  0  0
  8  4  1  0  0  0
M  END
> <minimizedAffinity>
-6.62147

> <CNNscore>
0.5836476088

> <CNNaffinity>
5.0024156570

> <CNN_VS>
2.9196479321

> <CNNaffinity_variance>
0.0806495771

$$$$
[H]c1nc2c([H])c([H])c(C(=O)OC([H])([H])C([H])([H])[H])c([H])c2s1


 14 15  0  0  0  0  0  0  0  0999 V2000
   55.8966   -4.6030   -8.8624 C   0  0  0  0  0  0  0  0  0  0  0  0
   57.1600   -5.1252   -8.7382 C   0  0  0  0  0  0  0  0  0  0  0  0
   58.0939   -5.1650   -9.7173 C   0  0  0  0  0  0  0  0  0  0  0  0
   57.7887   -4.6378  -10.9887 C   0  0  0  0  0  0  0  0  0  0  0  0
   58.5915   -4.6113  -12.0184 N   0  0  0  0  0  0  0  0  0  0  0  0
   58.1877   -4.0881  -13.1610 C   0  0  0  0  0  0  0  0  0  0  0  0
   56.5936   -3.6013  -12.7852 S   0  0  0  0  0  0  0  0  0  0  0  0
   56.5368   -4.1072  -11.1528 C   0  0  0  0  0  0  0  0  0  0  0  0
   55.5960   -4.0862  -10.1070 C   0  0  0  0  0  0  0  0  0  0  0  0
   54.9137   -4.5758   -7.7861 C   0  0  0  0  0  0  0  0  0  0  0  0
   53.8833   -3.8600   -7.8748 O   0  0  0  0  0  0  0  0  0  0  0  0
   55.0545   -5.3194   -6.6302 O   0  0  0  0  0  0  0  0  0  0  0  0
   55.1544   -7.4454   -5.6159 C   0  0  0  0  0  0  0  0  0  0  0  0
   54.2885   -6.4913   -6.4068 C   0  0  0  0  0  0  0  0  0  0  0  0
 13 14  1  0  0  0
 14 12  1  0  0  0
 12 10  1  0  0  0
 10 11  2  0  0  0
 10  1  1  0  0  0
  1  2  2  0  0  0
  2  3  1  0  0  0
  3  4  2  0  0  0
  4  5  1  0  0  0
  5  6  2  0  0  0
  6  7  1  0  0  0
  7  8  1  0  0  0
  8  9  2  0  0  0
  9  1  1  0  0  0
  8  4  1  0  0  0
M  END
> <minimizedAffinity>
-5.68213

> <CNNscore>
0.5831257105

> <CNNaffinity>
4.0418000221

> <CNN_VS>
2.3568775654

> <CNNaffinity_variance>
0.3139379323

$$$$
[H]Oc1c([H])c([H])c(-c2oc3c([H])c(O[H])c([H])c([H])c3c2-c2c([H])c([H])c(O[H])c([H])c2[H])c([H])c1[H]


 27 30  0  0  0  0  0  0  0  0999 V2000
   54.1252   -4.0860   -8.6704 C   0  0  0  0  0  0  0  0  0  0  0  0
   54.4715   -3.7839   -9.8998 O   0  0  0  0  0  0  0  0  0  0  0  0
   55.6847   -4.1800  -10.1869 C   0  0  0  0  0  0  0  0  0  0  0  0
   56.4381   -4.0698  -11.3491 C   0  0  0  0  0  0  0  0  0  0  0  0
   57.7120   -4.5965  -11.3446 C   0  0  0  0  0  0  0  0  0  0  0  0
   58.4950   -4.5001  -12.5022 O   0  0  0  0  0  0  0  0  0  0  0  0
   58.2770   -5.2231  -10.2570 C   0  0  0  0  0  0  0  0  0  0  0  0
   57.5159   -5.3238   -9.1121 C   0  0  0  0  0  0  0  0  0  0  0  0
   56.2289   -4.8032   -9.0848 C   0  0  0  0  0  0  0  0  0  0  0  0
   55.2334   -4.7373   -8.1332 C   0  0  0  0  0  0  0  0  0  0  0  0
   59.0718   -3.6507  -12.5591 H   0  0  0  0  0  0  0  0  0  0  0  0
   49.3004   -3.2047   -5.9998 O   0  0  0  0  0  0  0  0  0  0  0  0
   50.4948   -3.3862   -6.6866 C   0  0  0  0  0  0  0  0  0  0  0  0
   50.9063   -2.4493   -7.6094 C   0  0  0  0  0  0  0  0  0  0  0  0
   52.1011   -2.6883   -8.2568 C   0  0  0  0  0  0  0  0  0  0  0  0
   52.8590   -3.8050   -8.0047 C   0  0  0  0  0  0  0  0  0  0  0  0
   52.4069   -4.7059   -7.0790 C   0  0  0  0  0  0  0  0  0  0  0  0
   51.2238   -4.5202   -6.4031 C   0  0  0  0  0  0  0  0  0  0  0  0
   48.7287   -2.3827   -6.1761 H   0  0  0  0  0  0  0  0  0  0  0  0
   55.3207   -5.2602   -6.7860 C   0  0  0  0  0  0  0  0  0  0  0  0
   55.7875   -4.4730   -5.7538 C   0  0  0  0  0  0  0  0  0  0  0  0
   55.8525   -5.0138   -4.4874 C   0  0  0  0  0  0  0  0  0  0  0  0
   55.4677   -6.3103   -4.2211 C   0  0  0  0  0  0  0  0  0  0  0  0
   55.5447   -6.8274   -2.9346 O   0  0  0  0  0  0  0  0  0  0  0  0
   55.0005   -7.0897   -5.2695 C   0  0  0  0  0  0  0  0  0  0  0  0
   54.9300   -6.5588   -6.5461 C   0  0  0  0  0  0  0  0  0  0  0  0
   54.7169   -6.7090   -2.3478 H   0  0  0  0  0  0  0  0  0  0  0  0
 12 13  1  0  0  0
 13 14  2  0  0  0
 14 15  1  0  0  0
 15 16  2  0  0  0
 16 17  1  0  0  0
 17 18  2  0  0  0
 16  1  1  0  0  0
  1  2  1  0  0  0
  2  3  1  0  0  0
  3  4  2  0  0  0
  4  5  1  0  0  0
  5  6  1  0  0  0
  5  7  2  0  0  0
  7  8  1  0  0  0
  8  9  2  0  0  0
  9 10  1  0  0  0
 10 20  1  0  0  0
 20 21  2  0  0  0
 21 22  1  0  0  0
 22 23  2  0  0  0
 23 24  1  0  0  0
 23 25  1  0  0  0
 25 26  2  0  0  0
 18 13  1  0  0  0
 10  1  2  0  0  0
 26 20  1  0  0  0
  9  3  1  0  0  0
 12 19  1  0  0  0
  6 11  1  0  0  0
 24 27  1  0  0  0
M  END
> <minimizedAffinity>
-11.27545

> <CNNscore>
0.7230917215

> <CNNaffinity>
6.4367513657

> <CNN_VS>
4.6543617249

> <CNNaffinity_variance>
0.0270642377

$$$$
[H]Oc1c([H])c([H])c(-c2oc3c([H])c(O[H])c([H])c([H])c3c2-c2c([H])c([H])c(O[H])c([H])c2[H])c([H])c1[H]


 27 30  0  0  0  0  0  0  0  0999 V2000
   64.3821   -6.7566  -10.7943 C   0  0  0  0  0  0  0  0  0  0  0  0
   64.3629   -5.6376  -11.4800 O   0  0  0  0  0  0  0  0  0  0  0  0
   64.2708   -5.8448  -12.7684 C   0  0  0  0  0  0  0  0  0  0  0  0
   64.2198   -4.9633  -13.8411 C   0  0  0  0  0  0  0  0  0  0  0  0
   64.1210   -5.4949  -15.1090 C   0  0  0  0  0  0  0  0  0  0  0  0
   64.0678   -4.6303  -16.2099 O   0  0  0  0  0  0  0  0  0  0  0  0
   64.0703   -6.8453  -15.3706 C   0  0  0  0  0  0  0  0  0  0  0  0
   64.1220   -7.7060  -14.2950 C   0  0  0  0  0  0  0  0  0  0  0  0
   64.2216   -7.2015  -13.0052 C   0  0  0  0  0  0  0  0  0  0  0  0
   64.2927   -7.7667  -11.7496 C   0  0  0  0  0  0  0  0  0  0  0  0
   64.9842   -4.3888  -16.6091 H   0  0  0  0  0  0  0  0  0  0  0  0
   64.5116   -7.3758   -5.2457 O   0  0  0  0  0  0  0  0  0  0  0  0
   64.5236   -7.2205   -6.6266 C   0  0  0  0  0  0  0  0  0  0  0  0
   65.7237   -7.1241   -7.2970 C   0  0  0  0  0  0  0  0  0  0  0  0
   65.6669   -6.9714   -8.6672 C   0  0  0  0  0  0  0  0  0  0  0  0
   64.4761   -6.9162   -9.3482 C   0  0  0  0  0  0  0  0  0  0  0  0
   63.3114   -7.0166   -8.6367 C   0  0  0  0  0  0  0  0  0  0  0  0
   63.3067   -7.1699   -7.2702 C   0  0  0  0  0  0  0  0  0  0  0  0
   65.3855   -7.4183   -4.7280 H   0  0  0  0  0  0  0  0  0  0  0  0
   64.2781   -9.1858  -11.4631 C   0  0  0  0  0  0  0  0  0  0  0  0
   65.4101   -9.9528  -11.6453 C   0  0  0  0  0  0  0  0  0  0  0  0
   65.3488  -11.2998  -11.3589 C   0  0  0  0  0  0  0  0  0  0  0  0
   64.1976  -11.9019  -10.8985 C   0  0  0  0  0  0  0  0  0  0  0  0
   64.1665  -13.2616  -10.6184 O   0  0  0  0  0  0  0  0  0  0  0  0
   63.0673  -11.1174  -10.7203 C   0  0  0  0  0  0  0  0  0  0  0  0
   63.1152   -9.7632  -11.0041 C   0  0  0  0  0  0  0  0  0  0  0  0
   64.4114  -13.5342   -9.6648 H   0  0  0  0  0  0  0  0  0  0  0  0
 12 13  1  0  0  0
 13 14  2  0  0  0
 14 15  1  0  0  0
 15 16  2  0  0  0
 16 17  1  0  0  0
 17 18  2  0  0  0
 16  1  1  0  0  0
  1  2  1  0  0  0
  2  3  1  0  0  0
  3  4  2  0  0  0
  4  5  1  0  0  0
  5  6  1  0  0  0
  5  7  2  0  0  0
  7  8  1  0  0  0
  8  9  2  0  0  0
  9 10  1  0  0  0
 10 20  1  0  0  0
 20 21  2  0  0  0
 21 22  1  0  0  0
 22 23  2  0  0  0
 23 24  1  0  0  0
 23 25  1  0  0  0
 25 26  2  0  0  0
 18 13  1  0  0  0
 10  1  2  0  0  0
 26 20  1  0  0  0
  9  3  1  0  0  0
 12 19  1  0  0  0
  6 11  1  0  0  0
 24 27  1  0  0  0
M  END
> <minimizedAffinity>
-2.16943

> <CNNscore>
0.6951286793

> <CNNaffinity>
4.5020427704

> <CNN_VS>
3.1294989586

> <CNNaffinity_variance>
0.2049348801

$$$$
[H]Oc1c([H])c([H])c(-c2oc3c([H])c(O[H])c([H])c([H])c3c2-c2c([H])c([H])c(O[H])c([H])c2[H])c([H])c1[H]


 27 30  0  0  0  0  0  0  0  0999 V2000
   56.0726   -5.2765   -7.3499 C   0  0  0  0  0  0  0  0  0  0  0  0
   57.2139   -5.5154   -7.9524 O   0  0  0  0  0  0  0  0  0  0  0  0
   57.2264   -5.0803   -9.1860 C   0  0  0  0  0  0  0  0  0  0  0  0
   58.2096   -5.1216  -10.1667 C   0  0  0  0  0  0  0  0  0  0  0  0
   57.9194   -4.5678  -11.3952 C   0  0  0  0  0  0  0  0  0  0  0  0
   58.8915   -4.5949  -12.4035 O   0  0  0  0  0  0  0  0  0  0  0  0
   56.7142   -3.9785  -11.7032 C   0  0  0  0  0  0  0  0  0  0  0  0
   55.7497   -3.9461  -10.7188 C   0  0  0  0  0  0  0  0  0  0  0  0
   56.0115   -4.4954   -9.4708 C   0  0  0  0  0  0  0  0  0  0  0  0
   55.2912   -4.6259   -8.3023 C   0  0  0  0  0  0  0  0  0  0  0  0
   58.8605   -5.4280  -13.0055 H   0  0  0  0  0  0  0  0  0  0  0  0
   54.5835   -6.7866   -2.1837 O   0  0  0  0  0  0  0  0  0  0  0  0
   54.9632   -6.3702   -3.4541 C   0  0  0  0  0  0  0  0  0  0  0  0
   55.4019   -5.0790   -3.6517 C   0  0  0  0  0  0  0  0  0  0  0  0
   55.7641   -4.7287   -4.9362 C   0  0  0  0  0  0  0  0  0  0  0  0
   55.6966   -5.6149   -5.9826 C   0  0  0  0  0  0  0  0  0  0  0  0
   55.2543   -6.8860   -5.7346 C   0  0  0  0  0  0  0  0  0  0  0  0
   54.8800   -7.2913   -4.4751 C   0  0  0  0  0  0  0  0  0  0  0  0
   54.6281   -6.1414   -1.3993 H   0  0  0  0  0  0  0  0  0  0  0  0
   53.9358   -4.1622   -8.0927 C   0  0  0  0  0  0  0  0  0  0  0  0
   53.0462   -4.9029   -7.3425 C   0  0  0  0  0  0  0  0  0  0  0  0
   51.7662   -4.4213   -7.1696 C   0  0  0  0  0  0  0  0  0  0  0  0
   51.3489   -3.2286   -7.7202 C   0  0  0  0  0  0  0  0  0  0  0  0
   50.0526   -2.7691   -7.5285 O   0  0  0  0  0  0  0  0  0  0  0  0
   52.2550   -2.4949   -8.4722 C   0  0  0  0  0  0  0  0  0  0  0  0
   53.5437   -2.9672   -8.6535 C   0  0  0  0  0  0  0  0  0  0  0  0
   49.8974   -2.1766   -6.7109 H   0  0  0  0  0  0  0  0  0  0  0  0
 12 13  1  0  0  0
 13 14  2  0  0  0
 14 15  1  0  0  0
 15 16  2  0  0  0
 16 17  1  0  0  0
 17 18  2  0  0  0
 16  1  1  0  0  0
  1  2  1  0  0  0
  2  3  1  0  0  0
  3  4  2  0  0  0
  4  5  1  0  0  0
  5  6  1  0  0  0
  5  7  2  0  0  0
  7  8  1  0  0  0
  8  9  2  0  0  0
  9 10  1  0  0  0
 10 20  1  0  0  0
 20 21  2  0  0  0
 21 22  1  0  0  0
 22 23  2  0  0  0
 23 24  1  0  0  0
 23 25  1  0  0  0
 25 26  2  0  0  0
 18 13  1  0  0  0
 10  1  2  0  0  0
 26 20  1  0  0  0
  9  3  1  0  0  0
 12 19  1  0  0  0
  6 11  1  0  0  0
 24 27  1  0  0  0
M  END
> <minimizedAffinity>
-10.89227

> <CNNscore>
0.6830188036

> <CNNaffinity>
6.3589496613

> <CNN_VS>
4.3432822227

> <CNNaffinity_variance>
0.0566672757

$$$$
[H]Oc1c([H])c([H])c(-c2oc3c([H])c(O[H])c([H])c([H])c3c2-c2c([H])c([H])c(O[H])c([H])c2[H])c([H])c1[H]


 27 30  0  0  0  0  0  0  0  0999 V2000
   56.0565   -5.2949   -7.4073 C   0  0  0  0  0  0  0  0  0  0  0  0
   57.2031   -5.5502   -7.9930 O   0  0  0  0  0  0  0  0  0  0  0  0
   57.2476   -5.0969   -9.2193 C   0  0  0  0  0  0  0  0  0  0  0  0
   58.2474   -5.1454  -10.1827 C   0  0  0  0  0  0  0  0  0  0  0  0
   57.9919   -4.5667  -11.4075 C   0  0  0  0  0  0  0  0  0  0  0  0
   58.9814   -4.6004  -12.3986 O   0  0  0  0  0  0  0  0  0  0  0  0
   56.8059   -3.9460  -11.7279 C   0  0  0  0  0  0  0  0  0  0  0  0
   55.8246   -3.9068  -10.7605 C   0  0  0  0  0  0  0  0  0  0  0  0
   56.0514   -4.4807   -9.5166 C   0  0  0  0  0  0  0  0  0  0  0  0
   55.3072   -4.6126   -8.3634 C   0  0  0  0  0  0  0  0  0  0  0  0
   58.9429   -5.4234  -13.0138 H   0  0  0  0  0  0  0  0  0  0  0  0
   54.5692   -6.4314   -2.1458 O   0  0  0  0  0  0  0  0  0  0  0  0
   54.9241   -6.1884   -3.4673 C   0  0  0  0  0  0  0  0  0  0  0  0
   54.6751   -7.1402   -4.4321 C   0  0  0  0  0  0  0  0  0  0  0  0
   55.0513   -6.8374   -5.7246 C   0  0  0  0  0  0  0  0  0  0  0  0
   55.6483   -5.6453   -6.0524 C   0  0  0  0  0  0  0  0  0  0  0  0
   55.8741   -4.7326   -5.0579 C   0  0  0  0  0  0  0  0  0  0  0  0
   55.5206   -4.9797   -3.7522 C   0  0  0  0  0  0  0  0  0  0  0  0
   54.1265   -7.3096   -1.8883 H   0  0  0  0  0  0  0  0  0  0  0  0
   53.9588   -4.1219   -8.1708 C   0  0  0  0  0  0  0  0  0  0  0  0
   53.5669   -2.9116   -8.7042 C   0  0  0  0  0  0  0  0  0  0  0  0
   52.2726   -2.4854   -8.4953 C   0  0  0  0  0  0  0  0  0  0  0  0
   51.3620   -3.2267   -7.7735 C   0  0  0  0  0  0  0  0  0  0  0  0
   50.0647   -2.7710   -7.5798 O   0  0  0  0  0  0  0  0  0  0  0  0
   51.7711   -4.4418   -7.2433 C   0  0  0  0  0  0  0  0  0  0  0  0
   53.0680   -4.8816   -7.4458 C   0  0  0  0  0  0  0  0  0  0  0  0
   49.3774   -3.0457   -8.2839 H   0  0  0  0  0  0  0  0  0  0  0  0
 12 13  1  0  0  0
 13 14  2  0  0  0
 14 15  1  0  0  0
 15 16  2  0  0  0
 16 17  1  0  0  0
 17 18  2  0  0  0
 16  1  1  0  0  0
  1  2  1  0  0  0
  2  3  1  0  0  0
  3  4  2  0  0  0
  4  5  1  0  0  0
  5  6  1  0  0  0
  5  7  2  0  0  0
  7  8  1  0  0  0
  8  9  2  0  0  0
  9 10  1  0  0  0
 10 20  1  0  0  0
 20 21  2  0  0  0
 21 22  1  0  0  0
 22 23  2  0  0  0
 23 24  1  0  0  0
 23 25  1  0  0  0
 25 26  2  0  0  0
 18 13  1  0  0  0
 10  1  2  0  0  0
 26 20  1  0  0  0
  9  3  1  0  0  0
 12 19  1  0  0  0
  6 11  1  0  0  0
 24 27  1  0  0  0
M  END
> <minimizedAffinity>
-10.78328

> <CNNscore>
0.6737488508

> <CNNaffinity>
6.3348054886

> <CNN_VS>
4.2680678368

> <CNNaffinity_variance>
0.0481503606

$$$$
[H]Oc1c([H])c([H])c(-c2oc3c([H])c(O[H])c([H])c([H])c3c2-c2c([H])c([H])c(O[H])c([H])c2[H])c([H])c1[H]


 27 30  0  0  0  0  0  0  0  0999 V2000
   54.2044   -4.2857   -8.4659 C   0  0  0  0  0  0  0  0  0  0  0  0
   54.5347   -3.9582   -9.6933 O   0  0  0  0  0  0  0  0  0  0  0  0
   55.7536   -4.3245   -9.9955 C   0  0  0  0  0  0  0  0  0  0  0  0
   56.4953   -4.1814  -11.1615 C   0  0  0  0  0  0  0  0  0  0  0  0
   57.7799   -4.6813  -11.1746 C   0  0  0  0  0  0  0  0  0  0  0  0
   58.5515   -4.5513  -12.3365 O   0  0  0  0  0  0  0  0  0  0  0  0
   58.3664   -5.3119  -10.1009 C   0  0  0  0  0  0  0  0  0  0  0  0
   57.6166   -5.4454   -8.9518 C   0  0  0  0  0  0  0  0  0  0  0  0
   56.3194   -4.9524   -8.9070 C   0  0  0  0  0  0  0  0  0  0  0  0
   55.3302   -4.9215   -7.9469 C   0  0  0  0  0  0  0  0  0  0  0  0
   59.1101   -3.6893  -12.3851 H   0  0  0  0  0  0  0  0  0  0  0  0
   49.3215   -3.1645   -5.9987 O   0  0  0  0  0  0  0  0  0  0  0  0
   50.5412   -3.4787   -6.5861 C   0  0  0  0  0  0  0  0  0  0  0  0
   51.2452   -4.5838   -6.1595 C   0  0  0  0  0  0  0  0  0  0  0  0
   52.4488   -4.8407   -6.7834 C   0  0  0  0  0  0  0  0  0  0  0  0
   52.9380   -4.0411   -7.7865 C   0  0  0  0  0  0  0  0  0  0  0  0
   52.2009   -2.9552   -8.1744 C   0  0  0  0  0  0  0  0  0  0  0  0
   50.9948   -2.6500   -7.5887 C   0  0  0  0  0  0  0  0  0  0  0  0
   48.9468   -3.7473   -5.2547 H   0  0  0  0  0  0  0  0  0  0  0  0
   55.4391   -5.4623   -6.6084 C   0  0  0  0  0  0  0  0  0  0  0  0
   55.1574   -6.7897   -6.3601 C   0  0  0  0  0  0  0  0  0  0  0  0
   55.2754   -7.2601   -5.0697 C   0  0  0  0  0  0  0  0  0  0  0  0
   55.6639   -6.4499   -4.0245 C   0  0  0  0  0  0  0  0  0  0  0  0
   55.7738   -6.9527   -2.7347 O   0  0  0  0  0  0  0  0  0  0  0  0
   55.9437   -5.1172   -4.2900 C   0  0  0  0  0  0  0  0  0  0  0  0
   55.8293   -4.6320   -5.5815 C   0  0  0  0  0  0  0  0  0  0  0  0
   56.6850   -7.3323   -2.4718 H   0  0  0  0  0  0  0  0  0  0  0  0
 12 13  1  0  0  0
 13 14  2  0  0  0
 14 15  1  0  0  0
 15 16  2  0  0  0
 16 17  1  0  0  0
 17 18  2  0  0  0
 16  1  1  0  0  0
  1  2  1  0  0  0
  2  3  1  0  0  0
  3  4  2  0  0  0
  4  5  1  0  0  0
  5  6  1  0  0  0
  5  7  2  0  0  0
  7  8  1  0  0  0
  8  9  2  0  0  0
  9 10  1  0  0  0
 10 20  1  0  0  0
 20 21  2  0  0  0
 21 22  1  0  0  0
 22 23  2  0  0  0
 23 24  1  0  0  0
 23 25  1  0  0  0
 25 26  2  0  0  0
 18 13  1  0  0  0
 10  1  2  0  0  0
 26 20  1  0  0  0
  9  3  1  0  0  0
 12 19  1  0  0  0
  6 11  1  0  0  0
 24 27  1  0  0  0
M  END
> <minimizedAffinity>
-11.11912

> <CNNscore>
0.6645759940

> <CNNaffinity>
6.3676133156

> <CNN_VS>
4.2317628860

> <CNNaffinity_variance>
0.0490439534

$$$$
[H]Oc1c([H])c([H])c(-c2oc3c([H])c(O[H])c([H])c([H])c3c2-c2c([H])c([H])c(O[H])c([H])c2[H])c([H])c1[H]


 27 30  0  0  0  0  0  0  0  0999 V2000
   54.6989   -4.3487   -8.3711 C   0  0  0  0  0  0  0  0  0  0  0  0
   53.7959   -3.5886   -8.9452 O   0  0  0  0  0  0  0  0  0  0  0  0
   52.6961   -3.5042   -8.2418 C   0  0  0  0  0  0  0  0  0  0  0  0
   51.5081   -2.8208   -8.4695 C   0  0  0  0  0  0  0  0  0  0  0  0
   50.5105   -2.9283   -7.5244 C   0  0  0  0  0  0  0  0  0  0  0  0
   49.3015   -2.2503   -7.7272 O   0  0  0  0  0  0  0  0  0  0  0  0
   50.6253   -3.6722   -6.3719 C   0  0  0  0  0  0  0  0  0  0  0  0
   51.8106   -4.3440   -6.1616 C   0  0  0  0  0  0  0  0  0  0  0  0
   52.8348   -4.2557   -7.0950 C   0  0  0  0  0  0  0  0  0  0  0  0
   54.1048   -4.7842   -7.1886 C   0  0  0  0  0  0  0  0  0  0  0  0
   48.5891   -2.7890   -8.2366 H   0  0  0  0  0  0  0  0  0  0  0  0
   59.7445   -5.5345  -10.4502 O   0  0  0  0  0  0  0  0  0  0  0  0
   58.5040   -5.2494   -9.8924 C   0  0  0  0  0  0  0  0  0  0  0  0
   58.3172   -5.3721   -8.5326 C   0  0  0  0  0  0  0  0  0  0  0  0
   57.0626   -5.0741   -8.0419 C   0  0  0  0  0  0  0  0  0  0  0  0
   56.0345   -4.6716   -8.8580 C   0  0  0  0  0  0  0  0  0  0  0  0
   56.2708   -4.5651  -10.2019 C   0  0  0  0  0  0  0  0  0  0  0  0
   57.5008   -4.8489  -10.7472 C   0  0  0  0  0  0  0  0  0  0  0  0
   60.5150   -5.8337   -9.8582 H   0  0  0  0  0  0  0  0  0  0  0  0
   54.7278   -5.6558   -6.2148 C   0  0  0  0  0  0  0  0  0  0  0  0
   54.5484   -7.0221   -6.2758 C   0  0  0  0  0  0  0  0  0  0  0  0
   55.1617   -7.8123   -5.3272 C   0  0  0  0  0  0  0  0  0  0  0  0
   55.9448   -7.2827   -4.3241 C   0  0  0  0  0  0  0  0  0  0  0  0
   56.5499   -8.1044   -3.3823 O   0  0  0  0  0  0  0  0  0  0  0  0
   56.1157   -5.9067   -4.2758 C   0  0  0  0  0  0  0  0  0  0  0  0
   55.5055   -5.1018   -5.2224 C   0  0  0  0  0  0  0  0  0  0  0  0
   57.4850   -8.4456   -3.6119 H   0  0  0  0  0  0  0  0  0  0  0  0
 12 13  1  0  0  0
 13 14  2  0  0  0
 14 15  1  0  0  0
 15 16  2  0  0  0
 16 17  1  0  0  0
 17 18  2  0  0  0
 16  1  1  0  0  0
  1  2  1  0  0  0
  2  3  1  0  0  0
  3  4  2  0  0  0
  4  5  1  0  0  0
  5  6  1  0  0  0
  5  7  2  0  0  0
  7  8  1  0  0  0
  8  9  2  0  0  0
  9 10  1  0  0  0
 10 20  1  0  0  0
 20 21  2  0  0  0
 21 22  1  0  0  0
 22 23  2  0  0  0
 23 24  1  0  0  0
 23 25  1  0  0  0
 25 26  2  0  0  0
 18 13  1  0  0  0
 10  1  2  0  0  0
 26 20  1  0  0  0
  9  3  1  0  0  0
 12 19  1  0  0  0
  6 11  1  0  0  0
 24 27  1  0  0  0
M  END
> <minimizedAffinity>
-10.36752

> <CNNscore>
0.5205099583

> <CNNaffinity>
6.3146595955

> <CNN_VS>
3.2868432999

> <CNNaffinity_variance>
0.1330190897

$$$$
[H]Oc1c([H])c([H])c(-c2oc3c([H])c(O[H])c([H])c([H])c3c2-c2c([H])c([H])c(O[H])c([H])c2[H])c([H])c1[H]


 27 30  0  0  0  0  0  0  0  0999 V2000
   59.7210   -6.9281   -2.0847 C   0  0  0  0  0  0  0  0  0  0  0  0
   58.9923   -5.8375   -2.0354 O   0  0  0  0  0  0  0  0  0  0  0  0
   57.7491   -6.0533   -2.3808 C   0  0  0  0  0  0  0  0  0  0  0  0
   56.6567   -5.1994   -2.4687 C   0  0  0  0  0  0  0  0  0  0  0  0
   55.4511   -5.7332   -2.8707 C   0  0  0  0  0  0  0  0  0  0  0  0
   54.3321   -4.8960   -2.9685 O   0  0  0  0  0  0  0  0  0  0  0  0
   55.2699   -7.0601   -3.1887 C   0  0  0  0  0  0  0  0  0  0  0  0
   56.3641   -7.8935   -3.0963 C   0  0  0  0  0  0  0  0  0  0  0  0
   57.5924   -7.3861   -2.6942 C   0  0  0  0  0  0  0  0  0  0  0  0
   58.8458   -7.9281   -2.5030 C   0  0  0  0  0  0  0  0  0  0  0  0
   54.2061   -4.4560   -3.8893 H   0  0  0  0  0  0  0  0  0  0  0  0
   65.0927   -7.4788   -0.6606 O   0  0  0  0  0  0  0  0  0  0  0  0
   63.7681   -7.3410   -1.0576 C   0  0  0  0  0  0  0  0  0  0  0  0
   63.4566   -7.2637   -2.3977 C   0  0  0  0  0  0  0  0  0  0  0  0
   62.1232   -7.1277   -2.7255 C   0  0  0  0  0  0  0  0  0  0  0  0
   61.1376   -7.0703   -1.7714 C   0  0  0  0  0  0  0  0  0  0  0  0
   61.4985   -7.1515   -0.4538 C   0  0  0  0  0  0  0  0  0  0  0  0
   62.8113   -7.2876   -0.0679 C   0  0  0  0  0  0  0  0  0  0  0  0
   65.8332   -7.5226   -1.3558 H   0  0  0  0  0  0  0  0  0  0  0  0
   59.2021   -9.3167   -2.7045 C   0  0  0  0  0  0  0  0  0  0  0  0
   59.8396   -9.7198   -3.8595 C   0  0  0  0  0  0  0  0  0  0  0  0
   60.1598  -11.0525   -4.0070 C   0  0  0  0  0  0  0  0  0  0  0  0
   59.8644  -11.9908   -3.0415 C   0  0  0  0  0  0  0  0  0  0  0  0
   60.1996  -13.3267   -3.2186 O   0  0  0  0  0  0  0  0  0  0  0  0
   59.2231  -11.5701   -1.8854 C   0  0  0  0  0  0  0  0  0  0  0  0
   58.8960  -10.2345   -1.7245 C   0  0  0  0  0  0  0  0  0  0  0  0
   61.1207  -13.6119   -2.8812 H   0  0  0  0  0  0  0  0  0  0  0  0
 12 13  1  0  0  0
 13 14  2  0  0  0
 14 15  1  0  0  0
 15 16  2  0  0  0
 16 17  1  0  0  0
 17 18  2  0  0  0
 16  1  1  0  0  0
  1  2  1  0  0  0
  2  3  1  0  0  0
  3  4  2  0  0  0
  4  5  1  0  0  0
  5  6  1  0  0  0
  5  7  2  0  0  0
  7  8  1  0  0  0
  8  9  2  0  0  0
  9 10  1  0  0  0
 10 20  1  0  0  0
 20 21  2  0  0  0
 21 22  1  0  0  0
 22 23  2  0  0  0
 23 24  1  0  0  0
 23 25  1  0  0  0
 25 26  2  0  0  0
 18 13  1  0  0  0
 10  1  2  0  0  0
 26 20  1  0  0  0
  9  3  1  0  0  0
 12 19  1  0  0  0
  6 11  1  0  0  0
 24 27  1  0  0  0
M  END
> <minimizedAffinity>
-1.91303

> <CNNscore>
0.4645221829

> <CNNaffinity>
4.8086290359

> <CNN_VS>
2.2337148190

> <CNNaffinity_variance>
0.7673485875

$$$$
[H]Oc1c([H])c([H])c(-c2oc3c([H])c(O[H])c([H])c([H])c3c2-c2c([H])c([H])c(O[H])c([H])c2[H])c([H])c1[H]


 27 30  0  0  0  0  0  0  0  0999 V2000
   57.7691   -5.1135   -8.9523 C   0  0  0  0  0  0  0  0  0  0  0  0
   58.6087   -5.6264   -8.0835 O   0  0  0  0  0  0  0  0  0  0  0  0
   59.7378   -5.9885   -8.6362 C   0  0  0  0  0  0  0  0  0  0  0  0
   60.8823   -6.5646   -8.0992 C   0  0  0  0  0  0  0  0  0  0  0  0
   61.9300   -6.8354   -8.9532 C   0  0  0  0  0  0  0  0  0  0  0  0
   63.0968   -7.4163   -8.4400 O   0  0  0  0  0  0  0  0  0  0  0  0
   61.9053   -6.5678  -10.3032 C   0  0  0  0  0  0  0  0  0  0  0  0
   60.7621   -5.9962  -10.8196 C   0  0  0  0  0  0  0  0  0  0  0  0
   59.6895   -5.7112   -9.9853 C   0  0  0  0  0  0  0  0  0  0  0  0
   58.4402   -5.1585  -10.1724 C   0  0  0  0  0  0  0  0  0  0  0  0
   63.1009   -8.4446   -8.4453 H   0  0  0  0  0  0  0  0  0  0  0  0
   52.5767   -3.3596   -7.8802 O   0  0  0  0  0  0  0  0  0  0  0  0
   53.8763   -3.7583   -8.1690 C   0  0  0  0  0  0  0  0  0  0  0  0
   54.7056   -2.9279   -8.8911 C   0  0  0  0  0  0  0  0  0  0  0  0
   55.9836   -3.3824   -9.1440 C   0  0  0  0  0  0  0  0  0  0  0  0
   56.4258   -4.6051   -8.7029 C   0  0  0  0  0  0  0  0  0  0  0  0
   55.5637   -5.3929   -7.9895 C   0  0  0  0  0  0  0  0  0  0  0  0
   54.2788   -4.9923   -7.7075 C   0  0  0  0  0  0  0  0  0  0  0  0
   52.2354   -2.4570   -8.2003 H   0  0  0  0  0  0  0  0  0  0  0  0
   57.9046   -4.6967  -11.4356 C   0  0  0  0  0  0  0  0  0  0  0  0
   58.6566   -3.8940  -12.2681 C   0  0  0  0  0  0  0  0  0  0  0  0
   58.1049   -3.4790  -13.4614 C   0  0  0  0  0  0  0  0  0  0  0  0
   56.8316   -3.8389  -13.8472 C   0  0  0  0  0  0  0  0  0  0  0  0
   56.3028   -3.4051  -15.0557 O   0  0  0  0  0  0  0  0  0  0  0  0
   56.0876   -4.6466  -12.9993 C   0  0  0  0  0  0  0  0  0  0  0  0
   56.6297   -5.0705  -11.7980 C   0  0  0  0  0  0  0  0  0  0  0  0
   56.4658   -4.0074  -15.8646 H   0  0  0  0  0  0  0  0  0  0  0  0
 12 13  1  0  0  0
 13 14  2  0  0  0
 14 15  1  0  0  0
 15 16  2  0  0  0
 16 17  1  0  0  0
 17 18  2  0  0  0
 16  1  1  0  0  0
  1  2  1  0  0  0
  2  3  1  0  0  0
  3  4  2  0  0  0
  4  5  1  0  0  0
  5  6  1  0  0  0
  5  7  2  0  0  0
  7  8  1  0  0  0
  8  9  2  0  0  0
  9 10  1  0  0  0
 10 20  1  0  0  0
 20 21  2  0  0  0
 21 22  1  0  0  0
 22 23  2  0  0  0
 23 24  1  0  0  0
 23 25  1  0  0  0
 25 26  2  0  0  0
 18 13  1  0  0  0
 10  1  2  0  0  0
 26 20  1  0  0  0
  9  3  1  0  0  0
 12 19  1  0  0  0
  6 11  1  0  0  0
 24 27  1  0  0  0
M  END
> <minimizedAffinity>
-6.22442

> <CNNscore>
0.4024749398

> <CNNaffinity>
5.1795639992

> <CNN_VS>
2.0846447945

> <CNNaffinity_variance>
0.1852033436

$$$$
[H]Oc1c([H])c([H])c(-c2oc3c([H])c(O[H])c([H])c([H])c3c2-c2c([H])c([H])c(O[H])c([H])c2[H])c([H])c1[H]


 27 30  0  0  0  0  0  0  0  0999 V2000
   56.8288   -5.4422   -7.4074 C   0  0  0  0  0  0  0  0  0  0  0  0
   57.4522   -6.1231   -6.4744 O   0  0  0  0  0  0  0  0  0  0  0  0
   56.7724   -6.1756   -5.3580 C   0  0  0  0  0  0  0  0  0  0  0  0
   57.0513   -6.7790   -4.1380 C   0  0  0  0  0  0  0  0  0  0  0  0
   56.1194   -6.6567   -3.1296 C   0  0  0  0  0  0  0  0  0  0  0  0
   56.3736   -7.2546   -1.8885 O   0  0  0  0  0  0  0  0  0  0  0  0
   54.9326   -5.9725   -3.2636 C   0  0  0  0  0  0  0  0  0  0  0  0
   54.6716   -5.3798   -4.4805 C   0  0  0  0  0  0  0  0  0  0  0  0
   55.5904   -5.4850   -5.5162 C   0  0  0  0  0  0  0  0  0  0  0  0
   55.6380   -5.0264   -6.8157 C   0  0  0  0  0  0  0  0  0  0  0  0
   56.8701   -6.6538   -1.2178 H   0  0  0  0  0  0  0  0  0  0  0  0
   58.7539   -4.5070  -12.5655 O   0  0  0  0  0  0  0  0  0  0  0  0
   58.2358   -4.7226  -11.2942 C   0  0  0  0  0  0  0  0  0  0  0  0
   56.9319   -4.3750  -11.0152 C   0  0  0  0  0  0  0  0  0  0  0  0
   56.4785   -4.6151   -9.7343 C   0  0  0  0  0  0  0  0  0  0  0  0
   57.2776   -5.1750   -8.7685 C   0  0  0  0  0  0  0  0  0  0  0  0
   58.5655   -5.5028   -9.0955 C   0  0  0  0  0  0  0  0  0  0  0  0
   59.0718   -5.2865  -10.3555 C   0  0  0  0  0  0  0  0  0  0  0  0
   58.1740   -4.0932  -13.2908 H   0  0  0  0  0  0  0  0  0  0  0  0
   54.6150   -4.2361   -7.4675 C   0  0  0  0  0  0  0  0  0  0  0  0
   54.9103   -2.9935   -7.9887 C   0  0  0  0  0  0  0  0  0  0  0  0
   53.9039   -2.2775   -8.6009 C   0  0  0  0  0  0  0  0  0  0  0  0
   52.6178   -2.7615   -8.7082 C   0  0  0  0  0  0  0  0  0  0  0  0
   51.6248   -2.0167   -9.3307 O   0  0  0  0  0  0  0  0  0  0  0  0
   52.3363   -4.0128   -8.1792 C   0  0  0  0  0  0  0  0  0  0  0  0
   53.3378   -4.7424   -7.5619 C   0  0  0  0  0  0  0  0  0  0  0  0
   51.5129   -2.1602  -10.3360 H   0  0  0  0  0  0  0  0  0  0  0  0
 12 13  1  0  0  0
 13 14  2  0  0  0
 14 15  1  0  0  0
 15 16  2  0  0  0
 16 17  1  0  0  0
 17 18  2  0  0  0
 16  1  1  0  0  0
  1  2  1  0  0  0
  2  3  1  0  0  0
  3  4  2  0  0  0
  4  5  1  0  0  0
  5  6  1  0  0  0
  5  7  2  0  0  0
  7  8  1  0  0  0
  8  9  2  0  0  0
  9 10  1  0  0  0
 10 20  1  0  0  0
 20 21  2  0  0  0
 21 22  1  0  0  0
 22 23  2  0  0  0
 23 24  1  0  0  0
 23 25  1  0  0  0
 25 26  2  0  0  0
 18 13  1  0  0  0
 10  1  2  0  0  0
 26 20  1  0  0  0
  9  3  1  0  0  0
 12 19  1  0  0  0
  6 11  1  0  0  0
 24 27  1  0  0  0
M  END
> <minimizedAffinity>
-9.38073

> <CNNscore>
0.3931544423

> <CNNaffinity>
5.9489183426

> <CNN_VS>
2.3388435841

> <CNNaffinity_variance>
0.1207408756

$$$$
[H]C1=C(N2C([H])([H])C([H])([H])C([H])(N([H])C(=O)c3nc([H])c([H])c(C(F)(F)F)c3[H])C([H])([H])C2([H])[H])C([H])([H])C([H])([H])[C@]([H])(n2nc(C([H])(C([H])([H])[H])C([H])([H])[H])c3c(N([H])[H])nc([H])nc32)C1([H])[H]


 41 45  0  0  0  0  0  0  0  0999 V2000
   54.6039   -4.6346   -7.4983 C   0  0  0  0  0  0  0  0  0  0  0  0
   54.5589   -4.5738   -8.9752 C   0  0  0  0  0  0  0  0  0  0  0  0
   55.9187   -4.3332   -9.6097 C   0  0  0  0  0  0  0  0  0  0  0  0
   57.0499   -4.6241   -8.7387 C   0  0  0  0  0  0  0  0  0  0  0  0
   56.9616   -4.3075   -7.4668 C   0  0  0  0  0  0  0  0  0  0  0  0
   55.6609   -3.6626   -7.0147 C   0  0  0  0  0  0  0  0  0  0  0  0
   51.2141   -4.2155   -6.3872 C   0  0  0  0  0  0  0  0  0  0  0  0
   52.2675   -3.9313   -7.2167 N   0  0  0  0  0  0  0  0  0  0  0  0
   53.3461   -4.5716   -6.8485 N   0  0  0  0  0  0  0  0  0  0  0  0
   53.0195   -5.2911   -5.7447 C   0  0  0  0  0  0  0  0  0  0  0  0
   53.7380   -6.0690   -4.9619 N   0  0  0  0  0  0  0  0  0  0  0  0
   53.2315   -6.6608   -3.8890 C   0  0  0  0  0  0  0  0  0  0  0  0
   51.9312   -6.4830   -3.5523 N   0  0  0  0  0  0  0  0  0  0  0  0
   51.1415   -5.7081   -4.3039 C   0  0  0  0  0  0  0  0  0  0  0  0
   49.7617   -5.5176   -3.9595 N   0  0  0  0  0  0  0  0  0  0  0  0
   51.6815   -5.1043   -5.4078 C   0  0  0  0  0  0  0  0  0  0  0  0
   49.5230   -4.8396   -3.2143 H   0  0  0  0  0  0  0  0  0  0  0  0
   48.9736   -6.0448   -4.4217 H   0  0  0  0  0  0  0  0  0  0  0  0
   49.3010   -2.8026   -5.5486 C   0  0  0  0  0  0  0  0  0  0  0  0
   49.7797   -3.8958   -6.5126 C   0  0  0  0  0  0  0  0  0  0  0  0
   49.7585   -3.0755   -7.8785 C   0  0  0  0  0  0  0  0  0  0  0  0
   58.2723   -5.2893   -9.1275 N   0  0  0  0  0  0  0  0  0  0  0  0
   58.4015   -5.7170  -10.5128 C   0  0  0  0  0  0  0  0  0  0  0  0
   59.8400   -5.4666  -10.8537 C   0  0  0  0  0  0  0  0  0  0  0  0
   60.5707   -6.6273  -10.1046 C   0  0  0  0  0  0  0  0  0  0  0  0
   60.5160   -6.3293   -8.6634 C   0  0  0  0  0  0  0  0  0  0  0  0
   59.3260   -5.5342   -8.1996 C   0  0  0  0  0  0  0  0  0  0  0  0
   61.6763   -7.0238  -10.8000 N   0  0  0  0  0  0  0  0  0  0  0  0
   62.6126   -8.0514  -10.9214 C   0  0  0  0  0  0  0  0  0  0  0  0
   62.7240   -9.0949  -10.2635 O   0  0  0  0  0  0  0  0  0  0  0  0
   61.9066   -6.2316  -11.5878 H   0  0  0  0  0  0  0  0  0  0  0  0
   63.5820   -7.7644  -12.0590 C   0  0  0  0  0  0  0  0  0  0  0  0
   63.1908   -7.0216  -13.1281 C   0  0  0  0  0  0  0  0  0  0  0  0
   63.9633   -6.9624  -14.3026 C   0  0  0  0  0  0  0  0  0  0  0  0
   65.1366   -7.6760  -14.3532 C   0  0  0  0  0  0  0  0  0  0  0  0
   65.4957   -8.4126  -13.2479 C   0  0  0  0  0  0  0  0  0  0  0  0
   64.7361   -8.4583  -12.1167 N   0  0  0  0  0  0  0  0  0  0  0  0
   63.5474   -6.1807  -15.4868 C   0  0  0  0  0  0  0  0  0  0  0  0
   63.7901   -6.8894  -16.6800 F   0  0  0  0  0  0  0  0  0  0  0  0
   64.2930   -5.0000  -15.5854 F   0  0  0  0  0  0  0  0  0  0  0  0
   62.2239   -5.8734  -15.3914 F   0  0  0  0  0  0  0  0  0  0  0  0
 19 20  1  0  0  0
 20 21  1  0  0  0
 20  7  1  0  0  0
  7  8  2  0  0  0
  8  9  1  0  0  0
  9  1  1  0  0  0
  1  2  1  0  0  0
  2  3  1  0  0  0
  3  4  1  0  0  0
  4  5  2  0  0  0
  5  6  1  0  0  0
  4 22  1  0  0  0
 22 23  1  0  0  0
 23 24  1  0  0  0
 24 25  1  0  0  0
 25 26  1  0  0  0
 26 27  1  0  0  0
 25 28  1  0  0  0
 28 29  1  0  0  0
 29 30  2  0  0  0
 29 32  1  0  0  0
 32 33  2  0  0  0
 33 34  1  0  0  0
 34 35  2  0  0  0
 35 36  1  0  0  0
 36 37  2  0  0  0
 34 38  1  0  0  0
 38 39  1  0  0  0
 38 40  1  0  0  0
 38 41  1  0  0  0
  9 10  1  0  0  0
 10 11  2  0  0  0
 11 12  1  0  0  0
 12 13  2  0  0  0
 13 14  1  0  0  0
 14 15  1  0  0  0
 14 16  2  0  0  0
 16  7  1  0  0  0
  6  1  1  0  0  0
 27 22  1  0  0  0
 37 32  1  0  0  0
 16 10  1  0  0  0
 28 31  1  0  0  0
 15 17  1  0  0  0
 15 18  1  0  0  0
M  END
> <minimizedAffinity>
-6.86447

> <CNNscore>
0.1256055385

> <CNNaffinity>
6.5617408752

> <CNN_VS>
0.8241909742

> <CNNaffinity_variance>
0.3766360581

$$$$
[H]C1=C(N2C([H])([H])C([H])([H])C([H])(N([H])C(=O)c3nc([H])c([H])c(C(F)(F)F)c3[H])C([H])([H])C2([H])[H])C([H])([H])C([H])([H])[C@]([H])(n2nc(C([H])(C([H])([H])[H])C([H])([H])[H])c3c(N([H])[H])nc([H])nc32)C1([H])[H]


 41 45  0  0  0  0  0  0  0  0999 V2000
   61.2720   -7.5280   -9.7484 C   0  0  0  0  0  0  0  0  0  0  0  0
   61.0732   -7.2109   -8.3178 C   0  0  0  0  0  0  0  0  0  0  0  0
   60.1742   -6.0076   -8.0869 C   0  0  0  0  0  0  0  0  0  0  0  0
   59.3442   -5.6478   -9.2291 C   0  0  0  0  0  0  0  0  0  0  0  0
   59.8595   -5.7388  -10.4341 C   0  0  0  0  0  0  0  0  0  0  0  0
   61.2967   -6.2268  -10.5246 C   0  0  0  0  0  0  0  0  0  0  0  0
   63.6752  -10.1878   -9.9761 C   0  0  0  0  0  0  0  0  0  0  0  0
   62.7256   -9.4585   -9.3090 N   0  0  0  0  0  0  0  0  0  0  0  0
   62.3130   -8.4480  -10.0284 N   0  0  0  0  0  0  0  0  0  0  0  0
   63.0040   -8.4876  -11.1961 C   0  0  0  0  0  0  0  0  0  0  0  0
   63.0032   -7.6875  -12.2421 N   0  0  0  0  0  0  0  0  0  0  0  0
   63.7969   -7.8815  -13.2862 C   0  0  0  0  0  0  0  0  0  0  0  0
   64.6545   -8.9301  -13.3155 N   0  0  0  0  0  0  0  0  0  0  0  0
   64.7067   -9.7854  -12.2885 C   0  0  0  0  0  0  0  0  0  0  0  0
   65.6071  -10.9022  -12.3119 N   0  0  0  0  0  0  0  0  0  0  0  0
   63.8804   -9.5693  -11.2184 C   0  0  0  0  0  0  0  0  0  0  0  0
   66.6039  -10.7438  -12.0808 H   0  0  0  0  0  0  0  0  0  0  0  0
   65.3060  -11.8809  -12.5651 H   0  0  0  0  0  0  0  0  0  0  0  0
   64.3016  -11.8239   -8.1623 C   0  0  0  0  0  0  0  0  0  0  0  0
   64.2774  -11.4967   -9.6609 C   0  0  0  0  0  0  0  0  0  0  0  0
   63.1279  -12.4938  -10.1334 C   0  0  0  0  0  0  0  0  0  0  0  0
   57.9591   -5.2392   -9.1775 N   0  0  0  0  0  0  0  0  0  0  0  0
   57.2263   -5.4781   -7.9428 C   0  0  0  0  0  0  0  0  0  0  0  0
   56.3412   -4.2775   -7.7896 C   0  0  0  0  0  0  0  0  0  0  0  0
   55.2325   -4.5377   -8.8598 C   0  0  0  0  0  0  0  0  0  0  0  0
   55.8393   -4.3337  -10.1861 C   0  0  0  0  0  0  0  0  0  0  0  0
   57.3112   -4.6270  -10.2896 C   0  0  0  0  0  0  0  0  0  0  0  0
   54.0352   -4.0346   -8.4398 N   0  0  0  0  0  0  0  0  0  0  0  0
   52.9170   -3.3118   -8.8577 C   0  0  0  0  0  0  0  0  0  0  0  0
   52.6782   -2.8017   -9.9608 O   0  0  0  0  0  0  0  0  0  0  0  0
   53.8833   -4.3351   -7.3500 H   0  0  0  0  0  0  0  0  0  0  0  0
   51.8973   -3.2005   -7.7334 C   0  0  0  0  0  0  0  0  0  0  0  0
   51.7620   -4.2010   -6.8230 C   0  0  0  0  0  0  0  0  0  0  0  0
   50.6643   -4.2499   -5.9442 C   0  0  0  0  0  0  0  0  0  0  0  0
   49.7178   -3.2565   -6.0202 C   0  0  0  0  0  0  0  0  0  0  0  0
   49.8951   -2.2621   -6.9546 C   0  0  0  0  0  0  0  0  0  0  0  0
   50.9656   -2.2287   -7.7982 N   0  0  0  0  0  0  0  0  0  0  0  0
   50.4830   -5.3400   -4.9618 C   0  0  0  0  0  0  0  0  0  0  0  0
   49.3459   -5.1224   -4.1587 F   0  0  0  0  0  0  0  0  0  0  0  0
   51.5687   -5.3949   -4.0798 F   0  0  0  0  0  0  0  0  0  0  0  0
   50.3688   -6.5304   -5.6137 F   0  0  0  0  0  0  0  0  0  0  0  0
 19 20  1  0  0  0
 20 21  1  0  0  0
 20  7  1  0  0  0
  7  8  2  0  0  0
  8  9  1  0  0  0
  9  1  1  0  0  0
  1  2  1  0  0  0
  2  3  1  0  0  0
  3  4  1  0  0  0
  4  5  2  0  0  0
  5  6  1  0  0  0
  4 22  1  0  0  0
 22 23  1  0  0  0
 23 24  1  0  0  0
 24 25  1  0  0  0
 25 26  1  0  0  0
 26 27  1  0  0  0
 25 28  1  0  0  0
 28 29  1  0  0  0
 29 30  2  0  0  0
 29 32  1  0  0  0
 32 33  2  0  0  0
 33 34  1  0  0  0
 34 35  2  0  0  0
 35 36  1  0  0  0
 36 37  2  0  0  0
 34 38  1  0  0  0
 38 39  1  0  0  0
 38 40  1  0  0  0
 38 41  1  0  0  0
  9 10  1  0  0  0
 10 11  2  0  0  0
 11 12  1  0  0  0
 12 13  2  0  0  0
 13 14  1  0  0  0
 14 15  1  0  0  0
 14 16  2  0  0  0
 16  7  1  0  0  0
  6  1  1  0  0  0
 27 22  1  0  0  0
 37 32  1  0  0  0
 16 10  1  0  0  0
 28 31  1  0  0  0
 15 17  1  0  0  0
 15 18  1  0  0  0
M  END
> <minimizedAffinity>
-8.58522

> <CNNscore>
0.1239061728

> <CNNaffinity>
6.3349604607

> <CNN_VS>
0.7849407196

> <CNNaffinity_variance>
0.0397771709

$$$$
[H]C1=C(N2C([H])([H])C([H])([H])C([H])(N([H])C(=O)c3nc([H])c([H])c(C(F)(F)F)c3[H])C([H])([H])C2([H])[H])C([H])([H])C([H])([H])[C@]([H])(n2nc(C([H])(C([H])([H])[H])C([H])([H])[H])c3c(N([H])[H])nc([H])nc32)C1([H])[H]


 41 45  0  0  0  0  0  0  0  0999 V2000
   61.5709   -8.0215   -8.7188 C   0  0  0  0  0  0  0  0  0  0  0  0
   61.5996   -6.8984   -7.7573 C   0  0  0  0  0  0  0  0  0  0  0  0
   60.7380   -5.7205   -8.1814 C   0  0  0  0  0  0  0  0  0  0  0  0
   59.7337   -6.0400   -9.1874 C   0  0  0  0  0  0  0  0  0  0  0  0
   60.0514   -6.8764  -10.1493 C   0  0  0  0  0  0  0  0  0  0  0  0
   61.4603   -7.4476  -10.1168 C   0  0  0  0  0  0  0  0  0  0  0  0
   64.1310  -10.2998   -7.6429 C   0  0  0  0  0  0  0  0  0  0  0  0
   63.4147   -9.1358   -7.5390 N   0  0  0  0  0  0  0  0  0  0  0  0
   62.5622   -9.0152   -8.5227 N   0  0  0  0  0  0  0  0  0  0  0  0
   62.7132  -10.1097   -9.3113 C   0  0  0  0  0  0  0  0  0  0  0  0
   62.1362  -10.4615  -10.4416 N   0  0  0  0  0  0  0  0  0  0  0  0
   62.4585  -11.5729  -11.0886 C   0  0  0  0  0  0  0  0  0  0  0  0
   63.4120  -12.4031  -10.6013 N   0  0  0  0  0  0  0  0  0  0  0  0
   64.0378  -12.1101   -9.4560 C   0  0  0  0  0  0  0  0  0  0  0  0
   65.0449  -12.9851   -8.9283 N   0  0  0  0  0  0  0  0  0  0  0  0
   63.6928  -10.9580   -8.8016 C   0  0  0  0  0  0  0  0  0  0  0  0
   65.9998  -12.9436   -9.3264 H   0  0  0  0  0  0  0  0  0  0  0  0
   64.8584  -13.6813   -8.1581 H   0  0  0  0  0  0  0  0  0  0  0  0
   65.7550   -9.9765   -5.7411 C   0  0  0  0  0  0  0  0  0  0  0  0
   65.0454  -10.9531   -6.6878 C   0  0  0  0  0  0  0  0  0  0  0  0
   64.0151  -11.6133   -5.6673 C   0  0  0  0  0  0  0  0  0  0  0  0
   58.3709   -5.5600   -9.2096 N   0  0  0  0  0  0  0  0  0  0  0  0
   57.5822   -5.6992   -7.9943 C   0  0  0  0  0  0  0  0  0  0  0  0
   56.7560   -4.4493   -7.9341 C   0  0  0  0  0  0  0  0  0  0  0  0
   55.6749   -4.7070   -9.0328 C   0  0  0  0  0  0  0  0  0  0  0  0
   56.3394   -4.6009  -10.3428 C   0  0  0  0  0  0  0  0  0  0  0  0
   57.7967   -4.9728  -10.3745 C   0  0  0  0  0  0  0  0  0  0  0  0
   54.4910   -4.1236   -8.6846 N   0  0  0  0  0  0  0  0  0  0  0  0
   53.4269   -3.3695   -9.1809 C   0  0  0  0  0  0  0  0  0  0  0  0
   53.2535   -2.9073  -10.3169 O   0  0  0  0  0  0  0  0  0  0  0  0
   54.2856   -4.3580   -7.5874 H   0  0  0  0  0  0  0  0  0  0  0  0
   52.3753   -3.1484   -8.1031 C   0  0  0  0  0  0  0  0  0  0  0  0
   52.1334   -4.1054   -7.1684 C   0  0  0  0  0  0  0  0  0  0  0  0
   51.0020   -4.0469   -6.3340 C   0  0  0  0  0  0  0  0  0  0  0  0
   50.1332   -2.9922   -6.4793 C   0  0  0  0  0  0  0  0  0  0  0  0
   50.4175   -2.0449   -7.4360 C   0  0  0  0  0  0  0  0  0  0  0  0
   51.5193   -2.1159   -8.2359 N   0  0  0  0  0  0  0  0  0  0  0  0
   50.7051   -5.0875   -5.3265 C   0  0  0  0  0  0  0  0  0  0  0  0
   50.0556   -6.1941   -5.9085 F   0  0  0  0  0  0  0  0  0  0  0  0
   49.8256   -4.5964   -4.3543 F   0  0  0  0  0  0  0  0  0  0  0  0
   51.8609   -5.4902   -4.7290 F   0  0  0  0  0  0  0  0  0  0  0  0
 19 20  1  0  0  0
 20 21  1  0  0  0
 20  7  1  0  0  0
  7  8  2  0  0  0
  8  9  1  0  0  0
  9  1  1  0  0  0
  1  2  1  0  0  0
  2  3  1  0  0  0
  3  4  1  0  0  0
  4  5  2  0  0  0
  5  6  1  0  0  0
  4 22  1  0  0  0
 22 23  1  0  0  0
 23 24  1  0  0  0
 24 25  1  0  0  0
 25 26  1  0  0  0
 26 27  1  0  0  0
 25 28  1  0  0  0
 28 29  1  0  0  0
 29 30  2  0  0  0
 29 32  1  0  0  0
 32 33  2  0  0  0
 33 34  1  0  0  0
 34 35  2  0  0  0
 35 36  1  0  0  0
 36 37  2  0  0  0
 34 38  1  0  0  0
 38 39  1  0  0  0
 38 40  1  0  0  0
 38 41  1  0  0  0
  9 10  1  0  0  0
 10 11  2  0  0  0
 11 12  1  0  0  0
 12 13  2  0  0  0
 13 14  1  0  0  0
 14 15  1  0  0  0
 14 16  2  0  0  0
 16  7  1  0  0  0
  6  1  1  0  0  0
 27 22  1  0  0  0
 37 32  1  0  0  0
 16 10  1  0  0  0
 28 31  1  0  0  0
 15 17  1  0  0  0
 15 18  1  0  0  0
M  END
> <minimizedAffinity>
-7.77381

> <CNNscore>
0.1180710942

> <CNNaffinity>
6.5940918922

> <CNN_VS>
0.7785716653

> <CNNaffinity_variance>
0.3689530194

$$$$
[H]C1=C(N2C([H])([H])C([H])([H])C([H])(N([H])C(=O)c3nc([H])c([H])c(C(F)(F)F)c3[H])C([H])([H])C2([H])[H])C([H])([H])C([H])([H])[C@]([H])(n2nc(C([H])(C([H])([H])[H])C([H])([H])[H])c3c(N([H])[H])nc([H])nc32)C1([H])[H]


 41 45  0  0  0  0  0  0  0  0999 V2000
   53.9053   -4.8561   -6.9960 C   0  0  0  0  0  0  0  0  0  0  0  0
   53.5719   -4.8601   -8.4367 C   0  0  0  0  0  0  0  0  0  0  0  0
   54.7012   -4.3518   -9.3176 C   0  0  0  0  0  0  0  0  0  0  0  0
   56.0114   -4.3573   -8.6804 C   0  0  0  0  0  0  0  0  0  0  0  0
   56.0954   -4.0218   -7.4130 C   0  0  0  0  0  0  0  0  0  0  0  0
   54.7928   -3.6601   -6.7169 C   0  0  0  0  0  0  0  0  0  0  0  0
   51.5379   -5.6535   -4.4151 C   0  0  0  0  0  0  0  0  0  0  0  0
   52.7159   -5.8462   -5.0886 N   0  0  0  0  0  0  0  0  0  0  0  0
   52.8094   -5.0455   -6.1177 N   0  0  0  0  0  0  0  0  0  0  0  0
   51.6702   -4.3078   -6.1475 C   0  0  0  0  0  0  0  0  0  0  0  0
   51.2408   -3.3930   -6.9918 N   0  0  0  0  0  0  0  0  0  0  0  0
   50.0579   -2.8076   -6.8649 C   0  0  0  0  0  0  0  0  0  0  0  0
   49.2319   -3.1360   -5.8423 N   0  0  0  0  0  0  0  0  0  0  0  0
   49.6045   -4.0553   -4.9451 C   0  0  0  0  0  0  0  0  0  0  0  0
   48.7397   -4.4064   -3.8553 N   0  0  0  0  0  0  0  0  0  0  0  0
   50.8290   -4.6501   -5.0921 C   0  0  0  0  0  0  0  0  0  0  0  0
   47.9576   -5.0618   -4.0307 H   0  0  0  0  0  0  0  0  0  0  0  0
   48.8537   -4.0195   -2.8807 H   0  0  0  0  0  0  0  0  0  0  0  0
   51.7465   -7.4893   -2.6989 C   0  0  0  0  0  0  0  0  0  0  0  0
   51.0821   -6.1693   -3.1107 C   0  0  0  0  0  0  0  0  0  0  0  0
   51.8170   -5.1753   -2.1053 C   0  0  0  0  0  0  0  0  0  0  0  0
   57.2554   -4.7536   -9.2995 N   0  0  0  0  0  0  0  0  0  0  0  0
   58.3483   -5.1597   -8.4281 C   0  0  0  0  0  0  0  0  0  0  0  0
   59.0123   -6.2903   -9.1557 C   0  0  0  0  0  0  0  0  0  0  0  0
   59.7861   -5.5500  -10.2939 C   0  0  0  0  0  0  0  0  0  0  0  0
   58.7910   -5.0698  -11.2675 C   0  0  0  0  0  0  0  0  0  0  0  0
   57.4297   -4.7476  -10.7141 C   0  0  0  0  0  0  0  0  0  0  0  0
   60.9451   -6.2075  -10.5899 N   0  0  0  0  0  0  0  0  0  0  0  0
   62.1969   -6.5532  -10.0792 C   0  0  0  0  0  0  0  0  0  0  0  0
   62.7067   -6.2667   -8.9873 O   0  0  0  0  0  0  0  0  0  0  0  0
   60.8439   -6.6597  -11.6322 H   0  0  0  0  0  0  0  0  0  0  0  0
   62.9633   -7.4159  -11.0714 C   0  0  0  0  0  0  0  0  0  0  0  0
   62.7787   -8.7624  -11.1017 C   0  0  0  0  0  0  0  0  0  0  0  0
   63.6525   -9.6070  -11.8108 C   0  0  0  0  0  0  0  0  0  0  0  0
   64.7098   -9.0425  -12.4829 C   0  0  0  0  0  0  0  0  0  0  0  0
   64.8579   -7.6756  -12.4275 C   0  0  0  0  0  0  0  0  0  0  0  0
   64.0013   -6.8710  -11.7365 N   0  0  0  0  0  0  0  0  0  0  0  0
   63.4862  -11.0760  -11.8394 C   0  0  0  0  0  0  0  0  0  0  0  0
   62.2999  -11.4704  -11.1896 F   0  0  0  0  0  0  0  0  0  0  0  0
   64.5281  -11.7040  -11.1467 F   0  0  0  0  0  0  0  0  0  0  0  0
   63.4741  -11.5109  -13.1300 F   0  0  0  0  0  0  0  0  0  0  0  0
 19 20  1  0  0  0
 20 21  1  0  0  0
 20  7  1  0  0  0
  7  8  2  0  0  0
  8  9  1  0  0  0
  9  1  1  0  0  0
  1  2  1  0  0  0
  2  3  1  0  0  0
  3  4  1  0  0  0
  4  5  2  0  0  0
  5  6  1  0  0  0
  4 22  1  0  0  0
 22 23  1  0  0  0
 23 24  1  0  0  0
 24 25  1  0  0  0
 25 26  1  0  0  0
 26 27  1  0  0  0
 25 28  1  0  0  0
 28 29  1  0  0  0
 29 30  2  0  0  0
 29 32  1  0  0  0
 32 33  2  0  0  0
 33 34  1  0  0  0
 34 35  2  0  0  0
 35 36  1  0  0  0
 36 37  2  0  0  0
 34 38  1  0  0  0
 38 39  1  0  0  0
 38 40  1  0  0  0
 38 41  1  0  0  0
  9 10  1  0  0  0
 10 11  2  0  0  0
 11 12  1  0  0  0
 12 13  2  0  0  0
 13 14  1  0  0  0
 14 15  1  0  0  0
 14 16  2  0  0  0
 16  7  1  0  0  0
  6  1  1  0  0  0
 27 22  1  0  0  0
 37 32  1  0  0  0
 16 10  1  0  0  0
 28 31  1  0  0  0
 15 17  1  0  0  0
 15 18  1  0  0  0
M  END
> <minimizedAffinity>
-7.06004

> <CNNscore>
0.1097439751

> <CNNaffinity>
6.6344118118

> <CNN_VS>
0.7280867100

> <CNNaffinity_variance>
0.3074083030

$$$$
[H]C1=C(N2C([H])([H])C([H])([H])C([H])(N([H])C(=O)c3nc([H])c([H])c(C(F)(F)F)c3[H])C([H])([H])C2([H])[H])C([H])([H])C([H])([H])[C@]([H])(n2nc(C([H])(C([H])([H])[H])C([H])([H])[H])c3c(N([H])[H])nc([H])nc32)C1([H])[H]


 41 45  0  0  0  0  0  0  0  0999 V2000
   54.2432   -4.3523   -7.7261 C   0  0  0  0  0  0  0  0  0  0  0  0
   54.0637   -4.4309   -9.1919 C   0  0  0  0  0  0  0  0  0  0  0  0
   55.3262   -4.1029   -9.9716 C   0  0  0  0  0  0  0  0  0  0  0  0
   56.5547   -4.1892   -9.1929 C   0  0  0  0  0  0  0  0  0  0  0  0
   56.5406   -3.7700   -7.9480 C   0  0  0  0  0  0  0  0  0  0  0  0
   55.2178   -3.2316   -7.4261 C   0  0  0  0  0  0  0  0  0  0  0  0
   50.9545   -4.1157   -6.3012 C   0  0  0  0  0  0  0  0  0  0  0  0
   51.9183   -3.7541   -7.2061 N   0  0  0  0  0  0  0  0  0  0  0  0
   53.0475   -4.3674   -6.9655 N   0  0  0  0  0  0  0  0  0  0  0  0
   52.8471   -5.1471   -5.8725 C   0  0  0  0  0  0  0  0  0  0  0  0
   53.6600   -5.9300   -5.1940 N   0  0  0  0  0  0  0  0  0  0  0  0
   53.2732   -6.5879   -4.1098 C   0  0  0  0  0  0  0  0  0  0  0  0
   52.0031   -6.4762   -3.6515 N   0  0  0  0  0  0  0  0  0  0  0  0
   51.1222   -5.7005   -4.2929 C   0  0  0  0  0  0  0  0  0  0  0  0
   49.7733   -5.5796   -3.8192 N   0  0  0  0  0  0  0  0  0  0  0  0
   51.5391   -5.0279   -5.4102 C   0  0  0  0  0  0  0  0  0  0  0  0
   49.5789   -4.9449   -3.0246 H   0  0  0  0  0  0  0  0  0  0  0  0
   48.9657   -6.1163   -4.2345 H   0  0  0  0  0  0  0  0  0  0  0  0
   49.0885   -2.7474   -5.2988 C   0  0  0  0  0  0  0  0  0  0  0  0
   49.5043   -3.8472   -6.2841 C   0  0  0  0  0  0  0  0  0  0  0  0
   49.3136   -3.0617   -7.6572 C   0  0  0  0  0  0  0  0  0  0  0  0
   57.8079   -4.7505   -9.6428 N   0  0  0  0  0  0  0  0  0  0  0  0
   58.6859   -5.3397   -8.6426 C   0  0  0  0  0  0  0  0  0  0  0  0
   59.2825   -6.5367   -9.3206 C   0  0  0  0  0  0  0  0  0  0  0  0
   60.3184   -5.8900  -10.2957 C   0  0  0  0  0  0  0  0  0  0  0  0
   59.5622   -5.2395  -11.3791 C   0  0  0  0  0  0  0  0  0  0  0  0
   58.1936   -4.7321  -11.0148 C   0  0  0  0  0  0  0  0  0  0  0  0
   61.4018   -6.7056  -10.4516 N   0  0  0  0  0  0  0  0  0  0  0  0
   62.7600   -6.8302  -10.1563 C   0  0  0  0  0  0  0  0  0  0  0  0
   63.5109   -6.0430   -9.5641 O   0  0  0  0  0  0  0  0  0  0  0  0
   61.0677   -7.6412  -11.0120 H   0  0  0  0  0  0  0  0  0  0  0  0
   63.3006   -8.1602  -10.6612 C   0  0  0  0  0  0  0  0  0  0  0  0
   62.6272   -9.3158  -10.4180 C   0  0  0  0  0  0  0  0  0  0  0  0
   63.2234  -10.5719  -10.6339 C   0  0  0  0  0  0  0  0  0  0  0  0
   64.5146  -10.6137  -11.1021 C   0  0  0  0  0  0  0  0  0  0  0  0
   65.1583   -9.4205  -11.3368 C   0  0  0  0  0  0  0  0  0  0  0  0
   64.5657   -8.2114  -11.1234 N   0  0  0  0  0  0  0  0  0  0  0  0
   62.5199  -11.8421  -10.3547 C   0  0  0  0  0  0  0  0  0  0  0  0
   63.4286  -12.8763  -10.0554 F   0  0  0  0  0  0  0  0  0  0  0  0
   61.8104  -12.2714  -11.4825 F   0  0  0  0  0  0  0  0  0  0  0  0
   61.6563  -11.6690   -9.3157 F   0  0  0  0  0  0  0  0  0  0  0  0
 19 20  1  0  0  0
 20 21  1  0  0  0
 20  7  1  0  0  0
  7  8  2  0  0  0
  8  9  1  0  0  0
  9  1  1  0  0  0
  1  2  1  0  0  0
  2  3  1  0  0  0
  3  4  1  0  0  0
  4  5  2  0  0  0
  5  6  1  0  0  0
  4 22  1  0  0  0
 22 23  1  0  0  0
 23 24  1  0  0  0
 24 25  1  0  0  0
 25 26  1  0  0  0
 26 27  1  0  0  0
 25 28  1  0  0  0
 28 29  1  0  0  0
 29 30  2  0  0  0
 29 32  1  0  0  0
 32 33  2  0  0  0
 33 34  1  0  0  0
 34 35  2  0  0  0
 35 36  1  0  0  0
 36 37  2  0  0  0
 34 38  1  0  0  0
 38 39  1  0  0  0
 38 40  1  0  0  0
 38 41  1  0  0  0
  9 10  1  0  0  0
 10 11  2  0  0  0
 11 12  1  0  0  0
 12 13  2  0  0  0
 13 14  1  0  0  0
 14 15  1  0  0  0
 14 16  2  0  0  0
 16  7  1  0  0  0
  6  1  1  0  0  0
 27 22  1  0  0  0
 37 32  1  0  0  0
 16 10  1  0  0  0
 28 31  1  0  0  0
 15 17  1  0  0  0
 15 18  1  0  0  0
M  END
> <minimizedAffinity>
-7.26315

> <CNNscore>
0.1016666666

> <CNNaffinity>
6.4351668358

> <CNN_VS>
0.6542419791

> <CNNaffinity_variance>
0.2261299193

$$$$
[H]C1=C(N2C([H])([H])C([H])([H])C([H])(N([H])C(=O)c3nc([H])c([H])c(C(F)(F)F)c3[H])C([H])([H])C2([H])[H])C([H])([H])C([H])([H])[C@]([H])(n2nc(C([H])(C([H])([H])[H])C([H])([H])[H])c3c(N([H])[H])nc([H])nc32)C1([H])[H]


 41 45  0  0  0  0  0  0  0  0999 V2000
   53.9638   -4.8932   -6.9901 C   0  0  0  0  0  0  0  0  0  0  0  0
   53.6122   -4.8806   -8.4264 C   0  0  0  0  0  0  0  0  0  0  0  0
   54.7280   -4.3563   -9.3150 C   0  0  0  0  0  0  0  0  0  0  0  0
   56.0462   -4.3639   -8.6945 C   0  0  0  0  0  0  0  0  0  0  0  0
   56.1448   -4.0439   -7.4242 C   0  0  0  0  0  0  0  0  0  0  0  0
   54.8496   -3.6968   -6.7073 C   0  0  0  0  0  0  0  0  0  0  0  0
   51.6340   -5.7289   -4.3872 C   0  0  0  0  0  0  0  0  0  0  0  0
   52.8061   -5.9060   -5.0752 N   0  0  0  0  0  0  0  0  0  0  0  0
   52.8799   -5.0984   -6.1006 N   0  0  0  0  0  0  0  0  0  0  0  0
   51.7333   -4.3719   -6.1130 C   0  0  0  0  0  0  0  0  0  0  0  0
   51.2852   -3.4565   -6.9469 N   0  0  0  0  0  0  0  0  0  0  0  0
   50.0982   -2.8836   -6.8031 C   0  0  0  0  0  0  0  0  0  0  0  0
   49.2872   -3.2260   -5.7731 N   0  0  0  0  0  0  0  0  0  0  0  0
   49.6790   -4.1468   -4.8856 C   0  0  0  0  0  0  0  0  0  0  0  0
   48.8303   -4.5127   -3.7882 N   0  0  0  0  0  0  0  0  0  0  0  0
   50.9075   -4.7285   -5.0501 C   0  0  0  0  0  0  0  0  0  0  0  0
   48.0527   -5.1748   -3.9585 H   0  0  0  0  0  0  0  0  0  0  0  0
   48.9517   -4.1304   -2.8126 H   0  0  0  0  0  0  0  0  0  0  0  0
   51.9343   -7.5318   -2.6499 C   0  0  0  0  0  0  0  0  0  0  0  0
   51.1982   -6.2566   -3.0807 C   0  0  0  0  0  0  0  0  0  0  0  0
   51.8666   -5.2117   -2.0806 C   0  0  0  0  0  0  0  0  0  0  0  0
   57.2840   -4.7468   -9.3342 N   0  0  0  0  0  0  0  0  0  0  0  0
   58.3823   -5.1802   -8.4831 C   0  0  0  0  0  0  0  0  0  0  0  0
   59.0369   -6.2923   -9.2468 C   0  0  0  0  0  0  0  0  0  0  0  0
   59.8041   -5.5233  -10.3703 C   0  0  0  0  0  0  0  0  0  0  0  0
   58.8030   -5.0134  -11.3223 C   0  0  0  0  0  0  0  0  0  0  0  0
   57.4472   -4.7024  -10.7494 C   0  0  0  0  0  0  0  0  0  0  0  0
   60.9586   -6.1760  -10.6934 N   0  0  0  0  0  0  0  0  0  0  0  0
   62.1265   -6.7168  -10.1541 C   0  0  0  0  0  0  0  0  0  0  0  0
   62.5199   -6.7240   -8.9797 O   0  0  0  0  0  0  0  0  0  0  0  0
   60.9575   -6.3698  -11.8175 H   0  0  0  0  0  0  0  0  0  0  0  0
   62.9621   -7.3819  -11.2384 C   0  0  0  0  0  0  0  0  0  0  0  0
   63.1364   -6.7774  -12.4435 C   0  0  0  0  0  0  0  0  0  0  0  0
   63.6706   -7.4737  -13.5433 C   0  0  0  0  0  0  0  0  0  0  0  0
   64.0195   -8.7926  -13.3785 C   0  0  0  0  0  0  0  0  0  0  0  0
   63.8283   -9.3643  -12.1416 C   0  0  0  0  0  0  0  0  0  0  0  0
   63.3105   -8.6750  -11.0855 N   0  0  0  0  0  0  0  0  0  0  0  0
   63.8477   -6.8450  -14.8698 C   0  0  0  0  0  0  0  0  0  0  0  0
   65.0694   -7.2266  -15.4589 F   0  0  0  0  0  0  0  0  0  0  0  0
   63.8993   -5.4510  -14.7522 F   0  0  0  0  0  0  0  0  0  0  0  0
   62.8124   -7.1925  -15.6837 F   0  0  0  0  0  0  0  0  0  0  0  0
 19 20  1  0  0  0
 20 21  1  0  0  0
 20  7  1  0  0  0
  7  8  2  0  0  0
  8  9  1  0  0  0
  9  1  1  0  0  0
  1  2  1  0  0  0
  2  3  1  0  0  0
  3  4  1  0  0  0
  4  5  2  0  0  0
  5  6  1  0  0  0
  4 22  1  0  0  0
 22 23  1  0  0  0
 23 24  1  0  0  0
 24 25  1  0  0  0
 25 26  1  0  0  0
 26 27  1  0  0  0
 25 28  1  0  0  0
 28 29  1  0  0  0
 29 30  2  0  0  0
 29 32  1  0  0  0
 32 33  2  0  0  0
 33 34  1  0  0  0
 34 35  2  0  0  0
 35 36  1  0  0  0
 36 37  2  0  0  0
 34 38  1  0  0  0
 38 39  1  0  0  0
 38 40  1  0  0  0
 38 41  1  0  0  0
  9 10  1  0  0  0
 10 11  2  0  0  0
 11 12  1  0  0  0
 12 13  2  0  0  0
 13 14  1  0  0  0
 14 15  1  0  0  0
 14 16  2  0  0  0
 16  7  1  0  0  0
  6  1  1  0  0  0
 27 22  1  0  0  0
 37 32  1  0  0  0
 16 10  1  0  0  0
 28 31  1  0  0  0
 15 17  1  0  0  0
 15 18  1  0  0  0
M  END
> <minimizedAffinity>
-6.99760

> <CNNscore>
0.0977151319

> <CNNaffinity>
6.7477860451

> <CNN_VS>
0.6593608260

> <CNNaffinity_variance>
0.4824382365

$$$$
[H]C1=C(N2C([H])([H])C([H])([H])C([H])(N([H])C(=O)c3nc([H])c([H])c(C(F)(F)F)c3[H])C([H])([H])C2([H])[H])C([H])([H])C([H])([H])[C@]([H])(n2nc(C([H])(C([H])([H])[H])C([H])([H])[H])c3c(N([H])[H])nc([H])nc32)C1([H])[H]


 41 45  0  0  0  0  0  0  0  0999 V2000
   61.1302   -7.5666   -9.5673 C   0  0  0  0  0  0  0  0  0  0  0  0
   60.9858   -7.0835   -8.1771 C   0  0  0  0  0  0  0  0  0  0  0  0
   60.0984   -5.8558   -8.0553 C   0  0  0  0  0  0  0  0  0  0  0  0
   59.2269   -5.6264   -9.2002 C   0  0  0  0  0  0  0  0  0  0  0  0
   59.6966   -5.8606  -10.4045 C   0  0  0  0  0  0  0  0  0  0  0  0
   61.1285   -6.3650  -10.4904 C   0  0  0  0  0  0  0  0  0  0  0  0
   64.0462   -9.5061  -10.3654 C   0  0  0  0  0  0  0  0  0  0  0  0
   63.2284   -8.4171  -10.5198 N   0  0  0  0  0  0  0  0  0  0  0  0
   62.1581   -8.5195   -9.7761 N   0  0  0  0  0  0  0  0  0  0  0  0
   62.2480   -9.7030   -9.1174 C   0  0  0  0  0  0  0  0  0  0  0  0
   61.4264  -10.3060   -8.2834 N   0  0  0  0  0  0  0  0  0  0  0  0
   61.6848  -11.5009   -7.7701 C   0  0  0  0  0  0  0  0  0  0  0  0
   62.8254  -12.1578   -8.0914 N   0  0  0  0  0  0  0  0  0  0  0  0
   63.7074  -11.6036   -8.9305 C   0  0  0  0  0  0  0  0  0  0  0  0
   64.9209  -12.2882   -9.2730 N   0  0  0  0  0  0  0  0  0  0  0  0
   63.4239  -10.3696   -9.4516 C   0  0  0  0  0  0  0  0  0  0  0  0
   64.8864  -13.0370   -9.9872 H   0  0  0  0  0  0  0  0  0  0  0  0
   65.8507  -12.0741   -8.8232 H   0  0  0  0  0  0  0  0  0  0  0  0
   65.5158  -10.6968  -12.0331 C   0  0  0  0  0  0  0  0  0  0  0  0
   65.4244   -9.7460  -10.8327 C   0  0  0  0  0  0  0  0  0  0  0  0
   65.7549   -8.3666  -11.5586 C   0  0  0  0  0  0  0  0  0  0  0  0
   57.8456   -5.2058   -9.1455 N   0  0  0  0  0  0  0  0  0  0  0  0
   57.1027   -5.4720   -7.9225 C   0  0  0  0  0  0  0  0  0  0  0  0
   56.2282   -4.2676   -7.7410 C   0  0  0  0  0  0  0  0  0  0  0  0
   55.1239   -4.4867   -8.8249 C   0  0  0  0  0  0  0  0  0  0  0  0
   55.7411   -4.2515  -10.1412 C   0  0  0  0  0  0  0  0  0  0  0  0
   57.2107   -4.5562  -10.2439 C   0  0  0  0  0  0  0  0  0  0  0  0
   53.9289   -3.9837   -8.3982 N   0  0  0  0  0  0  0  0  0  0  0  0
   52.8019   -3.2731   -8.8133 C   0  0  0  0  0  0  0  0  0  0  0  0
   52.5473   -2.7806   -9.9209 O   0  0  0  0  0  0  0  0  0  0  0  0
   53.7915   -4.2689   -7.3023 H   0  0  0  0  0  0  0  0  0  0  0  0
   51.7949   -3.1507   -7.6788 C   0  0  0  0  0  0  0  0  0  0  0  0
   51.6802   -4.1354   -6.7487 C   0  0  0  0  0  0  0  0  0  0  0  0
   50.5937   -4.1784   -5.8557 C   0  0  0  0  0  0  0  0  0  0  0  0
   49.6370   -3.1954   -5.9383 C   0  0  0  0  0  0  0  0  0  0  0  0
   49.7935   -2.2167   -6.8928 C   0  0  0  0  0  0  0  0  0  0  0  0
   50.8533   -2.1889   -7.7499 N   0  0  0  0  0  0  0  0  0  0  0  0
   50.4347   -5.2518   -4.8513 C   0  0  0  0  0  0  0  0  0  0  0  0
   49.2769   -5.0576   -4.0724 F   0  0  0  0  0  0  0  0  0  0  0  0
   51.5063   -5.2474   -3.9506 F   0  0  0  0  0  0  0  0  0  0  0  0
   50.3748   -6.4600   -5.4773 F   0  0  0  0  0  0  0  0  0  0  0  0
 19 20  1  0  0  0
 20 21  1  0  0  0
 20  7  1  0  0  0
  7  8  2  0  0  0
  8  9  1  0  0  0
  9  1  1  0  0  0
  1  2  1  0  0  0
  2  3  1  0  0  0
  3  4  1  0  0  0
  4  5  2  0  0  0
  5  6  1  0  0  0
  4 22  1  0  0  0
 22 23  1  0  0  0
 23 24  1  0  0  0
 24 25  1  0  0  0
 25 26  1  0  0  0
 26 27  1  0  0  0
 25 28  1  0  0  0
 28 29  1  0  0  0
 29 30  2  0  0  0
 29 32  1  0  0  0
 32 33  2  0  0  0
 33 34  1  0  0  0
 34 35  2  0  0  0
 35 36  1  0  0  0
 36 37  2  0  0  0
 34 38  1  0  0  0
 38 39  1  0  0  0
 38 40  1  0  0  0
 38 41  1  0  0  0
  9 10  1  0  0  0
 10 11  2  0  0  0
 11 12  1  0  0  0
 12 13  2  0  0  0
 13 14  1  0  0  0
 14 15  1  0  0  0
 14 16  2  0  0  0
 16  7  1  0  0  0
  6  1  1  0  0  0
 27 22  1  0  0  0
 37 32  1  0  0  0
 16 10  1  0  0  0
 28 31  1  0  0  0
 15 17  1  0  0  0
 15 18  1  0  0  0
M  END
> <minimizedAffinity>
-8.48998

> <CNNscore>
0.0966761932

> <CNNaffinity>
6.4031243324

> <CNN_VS>
0.6190297008

> <CNNaffinity_variance>
0.0615401678

$$$$
[H]C1=C(N2C([H])([H])C([H])([H])C([H])(N([H])C(=O)c3nc([H])c([H])c(C(F)(F)F)c3[H])C([H])([H])C2([H])[H])C([H])([H])C([H])([H])[C@]([H])(n2nc(C([H])(C([H])([H])[H])C([H])([H])[H])c3c(N([H])[H])nc([H])nc32)C1([H])[H]


 41 45  0  0  0  0  0  0  0  0999 V2000
   59.5958   -9.0797   -0.7391 C   0  0  0  0  0  0  0  0  0  0  0  0
   58.3871   -9.8603   -0.3974 C   0  0  0  0  0  0  0  0  0  0  0  0
   57.1446   -9.0022   -0.2262 C   0  0  0  0  0  0  0  0  0  0  0  0
   57.2408   -7.6768   -0.8236 C   0  0  0  0  0  0  0  0  0  0  0  0
   58.3823   -7.0318   -0.7417 C   0  0  0  0  0  0  0  0  0  0  0  0
   59.5175   -7.7456   -0.0249 C   0  0  0  0  0  0  0  0  0  0  0  0
   62.9710  -10.2891   -0.5231 C   0  0  0  0  0  0  0  0  0  0  0  0
   62.0347   -9.3457   -0.8574 N   0  0  0  0  0  0  0  0  0  0  0  0
   60.8228   -9.7806   -0.6312 N   0  0  0  0  0  0  0  0  0  0  0  0
   60.9413  -11.0434   -0.1476 C   0  0  0  0  0  0  0  0  0  0  0  0
   60.0383  -11.9374    0.1981 N   0  0  0  0  0  0  0  0  0  0  0  0
   60.3646  -13.1523    0.6170 C   0  0  0  0  0  0  0  0  0  0  0  0
   61.6641  -13.5255    0.7061 N   0  0  0  0  0  0  0  0  0  0  0  0
   62.6348  -12.6672    0.3741 C   0  0  0  0  0  0  0  0  0  0  0  0
   64.0141  -13.0503    0.4701 N   0  0  0  0  0  0  0  0  0  0  0  0
   62.2795  -11.4172   -0.0571 C   0  0  0  0  0  0  0  0  0  0  0  0
   64.4249  -13.6277   -0.2849 H   0  0  0  0  0  0  0  0  0  0  0  0
   64.6324  -12.7817    1.2814 H   0  0  0  0  0  0  0  0  0  0  0  0
   65.0569   -9.1290   -1.3369 C   0  0  0  0  0  0  0  0  0  0  0  0
   64.4388  -10.1900   -0.4173 C   0  0  0  0  0  0  0  0  0  0  0  0
   64.6040   -9.4554    0.9869 C   0  0  0  0  0  0  0  0  0  0  0  0
   56.1991   -6.9999   -1.5616 N   0  0  0  0  0  0  0  0  0  0  0  0
   56.1581   -7.1868   -3.0045 C   0  0  0  0  0  0  0  0  0  0  0  0
   54.6972   -7.2496   -3.3367 C   0  0  0  0  0  0  0  0  0  0  0  0
   54.2580   -5.7554   -3.2081 C   0  0  0  0  0  0  0  0  0  0  0  0
   54.2566   -5.4149   -1.7753 C   0  0  0  0  0  0  0  0  0  0  0  0
   55.2378   -6.1671   -0.9182 C   0  0  0  0  0  0  0  0  0  0  0  0
   53.2658   -5.4702   -4.1011 N   0  0  0  0  0  0  0  0  0  0  0  0
   51.9415   -5.7600   -4.4321 C   0  0  0  0  0  0  0  0  0  0  0  0
   51.1518   -6.5490   -3.8953 O   0  0  0  0  0  0  0  0  0  0  0  0
   53.6582   -4.6902   -4.8350 H   0  0  0  0  0  0  0  0  0  0  0  0
   51.4909   -4.9290   -5.6249 C   0  0  0  0  0  0  0  0  0  0  0  0
   52.3341   -4.7038   -6.6670 C   0  0  0  0  0  0  0  0  0  0  0  0
   52.0483   -3.7344   -7.6459 C   0  0  0  0  0  0  0  0  0  0  0  0
   50.8868   -3.0090   -7.5318 C   0  0  0  0  0  0  0  0  0  0  0  0
   50.0611   -3.2709   -6.4628 C   0  0  0  0  0  0  0  0  0  0  0  0
   50.3523   -4.2149   -5.5232 N   0  0  0  0  0  0  0  0  0  0  0  0
   52.9608   -3.4549   -8.7753 C   0  0  0  0  0  0  0  0  0  0  0  0
   53.9012   -2.4606   -8.4406 F   0  0  0  0  0  0  0  0  0  0  0  0
   52.2495   -2.9542   -9.8721 F   0  0  0  0  0  0  0  0  0  0  0  0
   53.6052   -4.5987   -9.1379 F   0  0  0  0  0  0  0  0  0  0  0  0
 19 20  1  0  0  0
 20 21  1  0  0  0
 20  7  1  0  0  0
  7  8  2  0  0  0
  8  9  1  0  0  0
  9  1  1  0  0  0
  1  2  1  0  0  0
  2  3  1  0  0  0
  3  4  1  0  0  0
  4  5  2  0  0  0
  5  6  1  0  0  0
  4 22  1  0  0  0
 22 23  1  0  0  0
 23 24  1  0  0  0
 24 25  1  0  0  0
 25 26  1  0  0  0
 26 27  1  0  0  0
 25 28  1  0  0  0
 28 29  1  0  0  0
 29 30  2  0  0  0
 29 32  1  0  0  0
 32 33  2  0  0  0
 33 34  1  0  0  0
 34 35  2  0  0  0
 35 36  1  0  0  0
 36 37  2  0  0  0
 34 38  1  0  0  0
 38 39  1  0  0  0
 38 40  1  0  0  0
 38 41  1  0  0  0
  9 10  1  0  0  0
 10 11  2  0  0  0
 11 12  1  0  0  0
 12 13  2  0  0  0
 13 14  1  0  0  0
 14 15  1  0  0  0
 14 16  2  0  0  0
 16  7  1  0  0  0
  6  1  1  0  0  0
 27 22  1  0  0  0
 37 32  1  0  0  0
 16 10  1  0  0  0
 28 31  1  0  0  0
 15 17  1  0  0  0
 15 18  1  0  0  0
M  END
> <minimizedAffinity>
-7.35190

> <CNNscore>
0.0871299729

> <CNNaffinity>
6.2963409424

> <CNN_VS>
0.5486000180

> <CNNaffinity_variance>
1.2271081209

$$$$
[H]C1=C(N2C([H])([H])C([H])([H])C([H])(N([H])C(=O)c3nc([H])c([H])c(C(F)(F)F)c3[H])C([H])([H])C2([H])[H])C([H])([H])C([H])([H])[C@]([H])(n2nc(C([H])(C([H])([H])[H])C([H])([H])[H])c3c(N([H])[H])nc([H])nc32)C1([H])[H]


 41 45  0  0  0  0  0  0  0  0999 V2000
   53.9792   -5.2140   -6.4124 C   0  0  0  0  0  0  0  0  0  0  0  0
   55.0661   -4.3359   -5.9284 C   0  0  0  0  0  0  0  0  0  0  0  0
   56.3407   -4.4474   -6.7486 C   0  0  0  0  0  0  0  0  0  0  0  0
   56.1581   -5.0368   -8.0684 C   0  0  0  0  0  0  0  0  0  0  0  0
   55.3191   -6.0393   -8.1985 C   0  0  0  0  0  0  0  0  0  0  0  0
   54.5996   -6.4927   -6.9380 C   0  0  0  0  0  0  0  0  0  0  0  0
   51.6096   -5.8672   -3.7933 C   0  0  0  0  0  0  0  0  0  0  0  0
   52.8002   -6.0783   -4.4386 N   0  0  0  0  0  0  0  0  0  0  0  0
   52.8801   -5.3638   -5.5304 N   0  0  0  0  0  0  0  0  0  0  0  0
   51.7193   -4.6674   -5.6312 C   0  0  0  0  0  0  0  0  0  0  0  0
   51.2711   -3.8402   -6.5527 N   0  0  0  0  0  0  0  0  0  0  0  0
   50.0696   -3.2838   -6.4849 C   0  0  0  0  0  0  0  0  0  0  0  0
   49.2430   -3.5515   -5.4453 N   0  0  0  0  0  0  0  0  0  0  0  0
   49.6339   -4.3805   -4.4711 C   0  0  0  0  0  0  0  0  0  0  0  0
   48.7686   -4.6663   -3.3629 N   0  0  0  0  0  0  0  0  0  0  0  0
   50.8776   -4.9466   -4.5577 C   0  0  0  0  0  0  0  0  0  0  0  0
   48.0089   -5.3584   -3.4891 H   0  0  0  0  0  0  0  0  0  0  0  0
   48.8602   -4.1960   -2.4232 H   0  0  0  0  0  0  0  0  0  0  0  0
   51.5569   -7.7199   -2.0834 C   0  0  0  0  0  0  0  0  0  0  0  0
   51.1558   -6.2863   -2.4539 C   0  0  0  0  0  0  0  0  0  0  0  0
   52.1574   -5.4775   -1.5151 C   0  0  0  0  0  0  0  0  0  0  0  0
   56.7817   -4.5888   -9.2925 N   0  0  0  0  0  0  0  0  0  0  0  0
   58.2001   -4.8623   -9.4714 C   0  0  0  0  0  0  0  0  0  0  0  0
   58.3417   -5.1895  -10.9279 C   0  0  0  0  0  0  0  0  0  0  0  0
   58.2122   -3.7859  -11.6026 C   0  0  0  0  0  0  0  0  0  0  0  0
   56.8040   -3.3691  -11.4931 C   0  0  0  0  0  0  0  0  0  0  0  0
   56.0519   -3.8947  -10.3009 C   0  0  0  0  0  0  0  0  0  0  0  0
   58.9816   -3.7239  -12.7284 N   0  0  0  0  0  0  0  0  0  0  0  0
   58.9243   -3.5993  -14.1171 C   0  0  0  0  0  0  0  0  0  0  0  0
   57.9356   -3.5206  -14.8590 O   0  0  0  0  0  0  0  0  0  0  0  0
   60.0776   -3.7688  -12.4156 H   0  0  0  0  0  0  0  0  0  0  0  0
   60.3246   -3.5473  -14.7109 C   0  0  0  0  0  0  0  0  0  0  0  0
   61.3122   -2.8499  -14.0895 C   0  0  0  0  0  0  0  0  0  0  0  0
   62.5278   -2.5635  -14.7376 C   0  0  0  0  0  0  0  0  0  0  0  0
   62.7049   -3.0066  -16.0262 C   0  0  0  0  0  0  0  0  0  0  0  0
   61.6805   -3.7107  -16.6164 C   0  0  0  0  0  0  0  0  0  0  0  0
   60.5088   -3.9809  -15.9737 N   0  0  0  0  0  0  0  0  0  0  0  0
   63.6072   -1.7867  -14.0913 C   0  0  0  0  0  0  0  0  0  0  0  0
   64.5208   -2.6309  -13.4296 F   0  0  0  0  0  0  0  0  0  0  0  0
   63.0846   -0.9418  -13.1051 F   0  0  0  0  0  0  0  0  0  0  0  0
   64.2590   -1.0415  -15.0267 F   0  0  0  0  0  0  0  0  0  0  0  0
 19 20  1  0  0  0
 20 21  1  0  0  0
 20  7  1  0  0  0
  7  8  2  0  0  0
  8  9  1  0  0  0
  9  1  1  0  0  0
  1  2  1  0  0  0
  2  3  1  0  0  0
  3  4  1  0  0  0
  4  5  2  0  0  0
  5  6  1  0  0  0
  4 22  1  0  0  0
 22 23  1  0  0  0
 23 24  1  0  0  0
 24 25  1  0  0  0
 25 26  1  0  0  0
 26 27  1  0  0  0
 25 28  1  0  0  0
 28 29  1  0  0  0
 29 30  2  0  0  0
 29 32  1  0  0  0
 32 33  2  0  0  0
 33 34  1  0  0  0
 34 35  2  0  0  0
 35 36  1  0  0  0
 36 37  2  0  0  0
 34 38  1  0  0  0
 38 39  1  0  0  0
 38 40  1  0  0  0
 38 41  1  0  0  0
  9 10  1  0  0  0
 10 11  2  0  0  0
 11 12  1  0  0  0
 12 13  2  0  0  0
 13 14  1  0  0  0
 14 15  1  0  0  0
 14 16  2  0  0  0
 16  7  1  0  0  0
  6  1  1  0  0  0
 27 22  1  0  0  0
 37 32  1  0  0  0
 16 10  1  0  0  0
 28 31  1  0  0  0
 15 17  1  0  0  0
 15 18  1  0  0  0
M  END
> <minimizedAffinity>
-6.96595

> <CNNscore>
0.0776678324

> <CNNaffinity>
6.5508751869

> <CNN_VS>
0.5087922812

> <CNNaffinity_variance>
0.2067478150

$$$$
[H]c1c([H])c(N(C([H])([H])[H])C([H])([H])c2nc3c(N([H])[H])nc(N([H])[H])nc3c([H])c2[H])c(Cl)c([H])c1Cl


 27 29  0  0  0  0  0  0  0  0999 V2000
   53.0396   -5.5204   -6.5650 C   0  0  0  0  0  0  0  0  0  0  0  0
   52.5938   -6.1024   -5.4019 C   0  0  0  0  0  0  0  0  0  0  0  0
   51.4506   -5.6237   -4.7575 C   0  0  0  0  0  0  0  0  0  0  0  0
   50.7605   -4.5567   -5.2914 C   0  0  0  0  0  0  0  0  0  0  0  0
   49.6520   -4.0533   -4.7130 N   0  0  0  0  0  0  0  0  0  0  0  0
   48.9645   -3.0127   -5.2183 C   0  0  0  0  0  0  0  0  0  0  0  0
   47.7916   -2.5009   -4.5816 N   0  0  0  0  0  0  0  0  0  0  0  0
   49.4313   -2.4667   -6.3612 N   0  0  0  0  0  0  0  0  0  0  0  0
   50.5324   -2.9340   -6.9745 C   0  0  0  0  0  0  0  0  0  0  0  0
   51.0097   -2.3467   -8.1774 N   0  0  0  0  0  0  0  0  0  0  0  0
   51.2382   -3.9999   -6.4584 C   0  0  0  0  0  0  0  0  0  0  0  0
   52.3495   -4.4841   -7.0626 N   0  0  0  0  0  0  0  0  0  0  0  0
   47.8588   -1.6767   -3.9196 H   0  0  0  0  0  0  0  0  0  0  0  0
   46.8415   -2.8890   -4.7228 H   0  0  0  0  0  0  0  0  0  0  0  0
   50.4851   -2.3991   -9.0782 H   0  0  0  0  0  0  0  0  0  0  0  0
   51.9256   -1.8481   -8.1301 H   0  0  0  0  0  0  0  0  0  0  0  0
   54.2211   -6.0064   -7.2595 C   0  0  0  0  0  0  0  0  0  0  0  0
   55.6300   -4.2777   -6.2151 C   0  0  0  0  0  0  0  0  0  0  0  0
   55.3142   -5.0835   -7.3847 N   0  0  0  0  0  0  0  0  0  0  0  0
   56.0935   -4.8855   -8.5381 C   0  0  0  0  0  0  0  0  0  0  0  0
   57.3804   -5.3625   -8.6010 C   0  0  0  0  0  0  0  0  0  0  0  0
   58.1593   -5.1565   -9.7487 C   0  0  0  0  0  0  0  0  0  0  0  0
   57.6549   -4.4770  -10.8277 C   0  0  0  0  0  0  0  0  0  0  0  0
   58.6490   -4.2232  -12.2718 Cl  0  0  0  0  0  0  0  0  0  0  0  0
   56.3734   -3.9999  -10.7691 C   0  0  0  0  0  0  0  0  0  0  0  0
   55.6225   -4.2079   -9.6419 C   0  0  0  0  0  0  0  0  0  0  0  0
   53.9675   -3.5842   -9.5832 Cl  0  0  0  0  0  0  0  0  0  0  0  0
 18 19  1  0  0  0
 19 17  1  0  0  0
 17  1  1  0  0  0
  1  2  2  0  0  0
  2  3  1  0  0  0
  3  4  2  0  0  0
  4  5  1  0  0  0
  5  6  2  0  0  0
  6  7  1  0  0  0
  6  8  1  0  0  0
  8  9  2  0  0  0
  9 10  1  0  0  0
  9 11  1  0  0  0
 11 12  2  0  0  0
 19 20  1  0  0  0
 20 21  2  0  0  0
 21 22  1  0  0  0
 22 23  2  0  0  0
 23 24  1  0  0  0
 23 25  1  0  0  0
 25 26  2  0  0  0
 26 27  1  0  0  0
 12  1  1  0  0  0
 26 20  1  0  0  0
 11  4  1  0  0  0
  7 13  1  0  0  0
  7 14  1  0  0  0
 10 15  1  0  0  0
 10 16  1  0  0  0
M  END
> <minimizedAffinity>
-9.28553

> <CNNscore>
0.6920781136

> <CNNaffinity>
6.9847326279

> <CNN_VS>
4.8339805603

> <CNNaffinity_variance>
0.1191356629

$$$$
[H]c1c([H])c(N(C([H])([H])[H])C([H])([H])c2nc3c(N([H])[H])nc(N([H])[H])nc3c([H])c2[H])c(Cl)c([H])c1Cl


 27 29  0  0  0  0  0  0  0  0999 V2000
   52.9285   -4.7351   -8.0551 C   0  0  0  0  0  0  0  0  0  0  0  0
   53.1564   -5.7998   -7.2154 C   0  0  0  0  0  0  0  0  0  0  0  0
   52.3672   -5.9937   -6.0793 C   0  0  0  0  0  0  0  0  0  0  0  0
   51.3486   -5.1097   -5.7949 C   0  0  0  0  0  0  0  0  0  0  0  0
   50.5561   -5.2474   -4.7134 N   0  0  0  0  0  0  0  0  0  0  0  0
   49.5569   -4.3956   -4.4184 C   0  0  0  0  0  0  0  0  0  0  0  0
   48.7328   -4.5680   -3.2633 N   0  0  0  0  0  0  0  0  0  0  0  0
   49.3625   -3.3622   -5.2650 N   0  0  0  0  0  0  0  0  0  0  0  0
   50.1269   -3.1835   -6.3560 C   0  0  0  0  0  0  0  0  0  0  0  0
   49.9080   -2.0896   -7.2366 N   0  0  0  0  0  0  0  0  0  0  0  0
   51.1511   -4.0550   -6.6600 C   0  0  0  0  0  0  0  0  0  0  0  0
   51.9314   -3.8906   -7.7548 N   0  0  0  0  0  0  0  0  0  0  0  0
   48.9581   -4.0553   -2.3642 H   0  0  0  0  0  0  0  0  0  0  0  0
   47.8978   -5.1805   -3.2355 H   0  0  0  0  0  0  0  0  0  0  0  0
   49.0492   -2.0001   -7.8230 H   0  0  0  0  0  0  0  0  0  0  0  0
   50.6527   -1.3595   -7.2793 H   0  0  0  0  0  0  0  0  0  0  0  0
   53.7299   -4.5172   -9.2487 C   0  0  0  0  0  0  0  0  0  0  0  0
   54.9153   -2.4217   -8.7310 C   0  0  0  0  0  0  0  0  0  0  0  0
   54.9809   -3.8366   -9.0635 N   0  0  0  0  0  0  0  0  0  0  0  0
   56.2564   -4.4152   -9.1865 C   0  0  0  0  0  0  0  0  0  0  0  0
   56.9400   -4.8403   -8.0732 C   0  0  0  0  0  0  0  0  0  0  0  0
   58.2158   -5.4091   -8.1968 C   0  0  0  0  0  0  0  0  0  0  0  0
   58.8053   -5.5520   -9.4266 C   0  0  0  0  0  0  0  0  0  0  0  0
   60.4176   -6.2721   -9.5696 Cl  0  0  0  0  0  0  0  0  0  0  0  0
   58.1278   -5.1297  -10.5384 C   0  0  0  0  0  0  0  0  0  0  0  0
   56.8817   -4.5756  -10.4042 C   0  0  0  0  0  0  0  0  0  0  0  0
   56.0199   -4.0349  -11.8521 Cl  0  0  0  0  0  0  0  0  0  0  0  0
 18 19  1  0  0  0
 19 17  1  0  0  0
 17  1  1  0  0  0
  1  2  2  0  0  0
  2  3  1  0  0  0
  3  4  2  0  0  0
  4  5  1  0  0  0
  5  6  2  0  0  0
  6  7  1  0  0  0
  6  8  1  0  0  0
  8  9  2  0  0  0
  9 10  1  0  0  0
  9 11  1  0  0  0
 11 12  2  0  0  0
 19 20  1  0  0  0
 20 21  2  0  0  0
 21 22  1  0  0  0
 22 23  2  0  0  0
 23 24  1  0  0  0
 23 25  1  0  0  0
 25 26  2  0  0  0
 26 27  1  0  0  0
 12  1  1  0  0  0
 26 20  1  0  0  0
 11  4  1  0  0  0
  7 13  1  0  0  0
  7 14  1  0  0  0
 10 15  1  0  0  0
 10 16  1  0  0  0
M  END
> <minimizedAffinity>
-8.81535

> <CNNscore>
0.6782410145

> <CNNaffinity>
6.9747495651

> <CNN_VS>
4.7305612564

> <CNNaffinity_variance>
0.0325625874

$$$$
[H]c1c([H])c(N(C([H])([H])[H])C([H])([H])c2nc3c(N([H])[H])nc(N([H])[H])nc3c([H])c2[H])c(Cl)c([H])c1Cl


 27 29  0  0  0  0  0  0  0  0999 V2000
   53.5120   -5.3639   -6.8493 C   0  0  0  0  0  0  0  0  0  0  0  0
   53.0380   -5.9843   -5.7175 C   0  0  0  0  0  0  0  0  0  0  0  0
   51.8486   -5.5629   -5.1184 C   0  0  0  0  0  0  0  0  0  0  0  0
   51.1408   -4.5145   -5.6656 C   0  0  0  0  0  0  0  0  0  0  0  0
   49.9880   -4.0660   -5.1303 N   0  0  0  0  0  0  0  0  0  0  0  0
   49.2825   -3.0443   -5.6493 C   0  0  0  0  0  0  0  0  0  0  0  0
   48.0625   -2.5910   -5.0586 N   0  0  0  0  0  0  0  0  0  0  0  0
   49.7781   -2.4594   -6.7605 N   0  0  0  0  0  0  0  0  0  0  0  0
   50.9236   -2.8715   -7.3303 C   0  0  0  0  0  0  0  0  0  0  0  0
   51.4307   -2.2438   -8.5002 N   0  0  0  0  0  0  0  0  0  0  0  0
   51.6479   -3.9180   -6.8001 C   0  0  0  0  0  0  0  0  0  0  0  0
   52.8038   -4.3467   -7.3607 N   0  0  0  0  0  0  0  0  0  0  0  0
   48.0665   -1.7770   -4.3807 H   0  0  0  0  0  0  0  0  0  0  0  0
   47.1361   -3.0137   -5.2496 H   0  0  0  0  0  0  0  0  0  0  0  0
   50.9497   -2.3004   -9.4249 H   0  0  0  0  0  0  0  0  0  0  0  0
   52.3226   -1.7104   -8.4029 H   0  0  0  0  0  0  0  0  0  0  0  0
   54.7422   -5.7901   -7.4968 C   0  0  0  0  0  0  0  0  0  0  0  0
   56.0913   -3.8167   -6.9052 C   0  0  0  0  0  0  0  0  0  0  0  0
   55.6337   -4.7486   -7.9246 N   0  0  0  0  0  0  0  0  0  0  0  0
   56.0904   -4.5472   -9.2390 C   0  0  0  0  0  0  0  0  0  0  0  0
   55.2489   -4.0419  -10.2003 C   0  0  0  0  0  0  0  0  0  0  0  0
   55.7035   -3.8500  -11.5129 C   0  0  0  0  0  0  0  0  0  0  0  0
   56.9922   -4.1617  -11.8630 C   0  0  0  0  0  0  0  0  0  0  0  0
   57.5544   -3.9146  -13.5246 Cl  0  0  0  0  0  0  0  0  0  0  0  0
   57.8338   -4.6655  -10.9084 C   0  0  0  0  0  0  0  0  0  0  0  0
   57.3774   -4.8483   -9.6293 C   0  0  0  0  0  0  0  0  0  0  0  0
   58.4790   -5.5007   -8.4076 Cl  0  0  0  0  0  0  0  0  0  0  0  0
 18 19  1  0  0  0
 19 17  1  0  0  0
 17  1  1  0  0  0
  1  2  2  0  0  0
  2  3  1  0  0  0
  3  4  2  0  0  0
  4  5  1  0  0  0
  5  6  2  0  0  0
  6  7  1  0  0  0
  6  8  1  0  0  0
  8  9  2  0  0  0
  9 10  1  0  0  0
  9 11  1  0  0  0
 11 12  2  0  0  0
 19 20  1  0  0  0
 20 21  2  0  0  0
 21 22  1  0  0  0
 22 23  2  0  0  0
 23 24  1  0  0  0
 23 25  1  0  0  0
 25 26  2  0  0  0
 26 27  1  0  0  0
 12  1  1  0  0  0
 26 20  1  0  0  0
 11  4  1  0  0  0
  7 13  1  0  0  0
  7 14  1  0  0  0
 10 15  1  0  0  0
 10 16  1  0  0  0
M  END
> <minimizedAffinity>
-9.18163

> <CNNscore>
0.5685137510

> <CNNaffinity>
6.8822731972

> <CNN_VS>
3.9126670361

> <CNNaffinity_variance>
0.0896586552

$$$$
[H]c1c([H])c(N(C([H])([H])[H])C([H])([H])c2nc3c(N([H])[H])nc(N([H])[H])nc3c([H])c2[H])c(Cl)c([H])c1Cl


 27 29  0  0  0  0  0  0  0  0999 V2000
   56.0071   -4.8277   -7.0350 C   0  0  0  0  0  0  0  0  0  0  0  0
   55.1365   -3.9559   -7.6452 C   0  0  0  0  0  0  0  0  0  0  0  0
   55.3306   -3.5665   -8.9725 C   0  0  0  0  0  0  0  0  0  0  0  0
   56.4055   -4.0600   -9.6801 C   0  0  0  0  0  0  0  0  0  0  0  0
   56.6419   -3.7189  -10.9625 N   0  0  0  0  0  0  0  0  0  0  0  0
   57.6852   -4.1896  -11.6703 C   0  0  0  0  0  0  0  0  0  0  0  0
   57.9097   -3.8093  -13.0296 N   0  0  0  0  0  0  0  0  0  0  0  0
   58.5189   -5.0432  -11.0389 N   0  0  0  0  0  0  0  0  0  0  0  0
   58.3243   -5.4125   -9.7612 C   0  0  0  0  0  0  0  0  0  0  0  0
   59.2124   -6.3124   -9.1121 N   0  0  0  0  0  0  0  0  0  0  0  0
   57.2561   -4.9315   -9.0343 C   0  0  0  0  0  0  0  0  0  0  0  0
   57.0443   -5.2925   -7.7463 N   0  0  0  0  0  0  0  0  0  0  0  0
   58.5694   -3.0133  -13.2604 H   0  0  0  0  0  0  0  0  0  0  0  0
   57.4590   -4.2704  -13.8406 H   0  0  0  0  0  0  0  0  0  0  0  0
   59.3023   -7.3149   -9.3887 H   0  0  0  0  0  0  0  0  0  0  0  0
   59.7870   -5.9290   -8.3296 H   0  0  0  0  0  0  0  0  0  0  0  0
   55.8214   -5.2556   -5.6577 C   0  0  0  0  0  0  0  0  0  0  0  0
   55.0650   -7.5976   -5.7415 C   0  0  0  0  0  0  0  0  0  0  0  0
   54.7739   -6.2088   -5.4200 N   0  0  0  0  0  0  0  0  0  0  0  0
   53.4946   -5.9144   -4.9164 C   0  0  0  0  0  0  0  0  0  0  0  0
   53.3023   -5.7209   -3.5699 C   0  0  0  0  0  0  0  0  0  0  0  0
   52.0242   -5.4360   -3.0683 C   0  0  0  0  0  0  0  0  0  0  0  0
   50.9438   -5.3452   -3.9080 C   0  0  0  0  0  0  0  0  0  0  0  0
   49.3342   -4.9848   -3.2620 Cl  0  0  0  0  0  0  0  0  0  0  0  0
   51.1309   -5.5375   -5.2502 C   0  0  0  0  0  0  0  0  0  0  0  0
   52.3850   -5.8151   -5.7278 C   0  0  0  0  0  0  0  0  0  0  0  0
   52.6088   -6.0609   -7.4659 Cl  0  0  0  0  0  0  0  0  0  0  0  0
 18 19  1  0  0  0
 19 17  1  0  0  0
 17  1  1  0  0  0
  1  2  2  0  0  0
  2  3  1  0  0  0
  3  4  2  0  0  0
  4  5  1  0  0  0
  5  6  2  0  0  0
  6  7  1  0  0  0
  6  8  1  0  0  0
  8  9  2  0  0  0
  9 10  1  0  0  0
  9 11  1  0  0  0
 11 12  2  0  0  0
 19 20  1  0  0  0
 20 21  2  0  0  0
 21 22  1  0  0  0
 22 23  2  0  0  0
 23 24  1  0  0  0
 23 25  1  0  0  0
 25 26  2  0  0  0
 26 27  1  0  0  0
 12  1  1  0  0  0
 26 20  1  0  0  0
 11  4  1  0  0  0
  7 13  1  0  0  0
  7 14  1  0  0  0
 10 15  1  0  0  0
 10 16  1  0  0  0
M  END
> <minimizedAffinity>
-8.76100

> <CNNscore>
0.3855784535

> <CNNaffinity>
6.4053215981

> <CNN_VS>
2.4697539806

> <CNNaffinity_variance>
0.2085720003

$$$$
[H]c1c([H])c(N(C([H])([H])[H])C([H])([H])c2nc3c(N([H])[H])nc(N([H])[H])nc3c([H])c2[H])c(Cl)c([H])c1Cl


 27 29  0  0  0  0  0  0  0  0999 V2000
   54.9013   -4.1363   -8.2272 C   0  0  0  0  0  0  0  0  0  0  0  0
   55.5091   -4.5191   -7.0549 C   0  0  0  0  0  0  0  0  0  0  0  0
   56.8121   -5.0226   -7.0585 C   0  0  0  0  0  0  0  0  0  0  0  0
   57.4978   -5.1378   -8.2486 C   0  0  0  0  0  0  0  0  0  0  0  0
   58.7561   -5.6165   -8.3118 N   0  0  0  0  0  0  0  0  0  0  0  0
   59.4422   -5.7367   -9.4632 C   0  0  0  0  0  0  0  0  0  0  0  0
   60.7764   -6.2483   -9.4983 N   0  0  0  0  0  0  0  0  0  0  0  0
   58.8140   -5.3511  -10.5941 N   0  0  0  0  0  0  0  0  0  0  0  0
   57.5598   -4.8676  -10.5812 C   0  0  0  0  0  0  0  0  0  0  0  0
   56.9137   -4.4664  -11.7816 N   0  0  0  0  0  0  0  0  0  0  0  0
   56.8552   -4.7438   -9.4026 C   0  0  0  0  0  0  0  0  0  0  0  0
   55.5910   -4.2589   -9.3705 N   0  0  0  0  0  0  0  0  0  0  0  0
   60.9511   -7.2731   -9.7014 H   0  0  0  0  0  0  0  0  0  0  0  0
   61.6210   -5.6713   -9.3338 H   0  0  0  0  0  0  0  0  0  0  0  0
   57.2256   -3.6434  -12.3429 H   0  0  0  0  0  0  0  0  0  0  0  0
   56.0958   -5.0357  -12.0925 H   0  0  0  0  0  0  0  0  0  0  0  0
   53.5497   -3.6004   -8.2485 C   0  0  0  0  0  0  0  0  0  0  0  0
   52.6370   -5.8686   -7.9545 C   0  0  0  0  0  0  0  0  0  0  0  0
   52.5202   -4.4402   -7.7034 N   0  0  0  0  0  0  0  0  0  0  0  0
   51.4096   -4.0011   -6.9615 C   0  0  0  0  0  0  0  0  0  0  0  0
   50.6228   -2.9744   -7.4246 C   0  0  0  0  0  0  0  0  0  0  0  0
   49.5207   -2.5318   -6.6792 C   0  0  0  0  0  0  0  0  0  0  0  0
   49.2066   -3.1120   -5.4770 C   0  0  0  0  0  0  0  0  0  0  0  0
   47.8116   -2.5437   -4.5447 Cl  0  0  0  0  0  0  0  0  0  0  0  0
   49.9879   -4.1350   -5.0118 C   0  0  0  0  0  0  0  0  0  0  0  0
   51.0621   -4.5584   -5.7499 C   0  0  0  0  0  0  0  0  0  0  0  0
   52.0615   -5.8824   -5.1334 Cl  0  0  0  0  0  0  0  0  0  0  0  0
 18 19  1  0  0  0
 19 17  1  0  0  0
 17  1  1  0  0  0
  1  2  2  0  0  0
  2  3  1  0  0  0
  3  4  2  0  0  0
  4  5  1  0  0  0
  5  6  2  0  0  0
  6  7  1  0  0  0
  6  8  1  0  0  0
  8  9  2  0  0  0
  9 10  1  0  0  0
  9 11  1  0  0  0
 11 12  2  0  0  0
 19 20  1  0  0  0
 20 21  2  0  0  0
 21 22  1  0  0  0
 22 23  2  0  0  0
 23 24  1  0  0  0
 23 25  1  0  0  0
 25 26  2  0  0  0
 26 27  1  0  0  0
 12  1  1  0  0  0
 26 20  1  0  0  0
 11  4  1  0  0  0
  7 13  1  0  0  0
  7 14  1  0  0  0
 10 15  1  0  0  0
 10 16  1  0  0  0
M  END
> <minimizedAffinity>
-9.73131

> <CNNscore>
0.3710071743

> <CNNaffinity>
6.3593778610

> <CNN_VS>
2.3593747616

> <CNNaffinity_variance>
0.1720980406

$$$$
[H]c1c([H])c(N(C([H])([H])[H])C([H])([H])c2nc3c(N([H])[H])nc(N([H])[H])nc3c([H])c2[H])c(Cl)c([H])c1Cl


 27 29  0  0  0  0  0  0  0  0999 V2000
   54.0549   -6.2469   -5.5461 C   0  0  0  0  0  0  0  0  0  0  0  0
   52.9723   -6.3488   -4.7047 C   0  0  0  0  0  0  0  0  0  0  0  0
   51.8139   -5.6044   -4.9398 C   0  0  0  0  0  0  0  0  0  0  0  0
   51.7531   -4.7582   -6.0261 C   0  0  0  0  0  0  0  0  0  0  0  0
   50.6620   -4.0164   -6.3015 N   0  0  0  0  0  0  0  0  0  0  0  0
   50.5829   -3.1848   -7.3565 C   0  0  0  0  0  0  0  0  0  0  0  0
   49.4113   -2.4105   -7.6226 N   0  0  0  0  0  0  0  0  0  0  0  0
   51.6646   -3.1105   -8.1607 N   0  0  0  0  0  0  0  0  0  0  0  0
   52.7753   -3.8306   -7.9267 C   0  0  0  0  0  0  0  0  0  0  0  0
   53.9051   -3.7398   -8.7841 N   0  0  0  0  0  0  0  0  0  0  0  0
   52.8583   -4.6831   -6.8464 C   0  0  0  0  0  0  0  0  0  0  0  0
   53.9690   -5.4163   -6.5952 N   0  0  0  0  0  0  0  0  0  0  0  0
   49.3422   -1.4103   -7.2810 H   0  0  0  0  0  0  0  0  0  0  0  0
   48.5904   -2.7658   -8.1453 H   0  0  0  0  0  0  0  0  0  0  0  0
   53.8932   -4.0780   -9.7715 H   0  0  0  0  0  0  0  0  0  0  0  0
   54.7698   -3.3129   -8.3846 H   0  0  0  0  0  0  0  0  0  0  0  0
   55.2682   -7.0182   -5.3282 C   0  0  0  0  0  0  0  0  0  0  0  0
   56.0653   -5.1619   -3.9201 C   0  0  0  0  0  0  0  0  0  0  0  0
   56.1263   -6.5739   -4.2659 N   0  0  0  0  0  0  0  0  0  0  0  0
   57.0232   -7.3802   -3.5432 C   0  0  0  0  0  0  0  0  0  0  0  0
   58.3329   -7.4970   -3.9414 C   0  0  0  0  0  0  0  0  0  0  0  0
   59.2239   -8.3086   -3.2246 C   0  0  0  0  0  0  0  0  0  0  0  0
   58.8080   -9.0000   -2.1157 C   0  0  0  0  0  0  0  0  0  0  0  0
   59.9433  -10.0221   -1.2187 Cl  0  0  0  0  0  0  0  0  0  0  0  0
   57.5040   -8.8866   -1.7157 C   0  0  0  0  0  0  0  0  0  0  0  0
   56.6433   -8.0902   -2.4247 C   0  0  0  0  0  0  0  0  0  0  0  0
   54.9607   -7.9550   -1.8934 Cl  0  0  0  0  0  0  0  0  0  0  0  0
 18 19  1  0  0  0
 19 17  1  0  0  0
 17  1  1  0  0  0
  1  2  2  0  0  0
  2  3  1  0  0  0
  3  4  2  0  0  0
  4  5  1  0  0  0
  5  6  2  0  0  0
  6  7  1  0  0  0
  6  8  1  0  0  0
  8  9  2  0  0  0
  9 10  1  0  0  0
  9 11  1  0  0  0
 11 12  2  0  0  0
 19 20  1  0  0  0
 20 21  2  0  0  0
 21 22  1  0  0  0
 22 23  2  0  0  0
 23 24  1  0  0  0
 23 25  1  0  0  0
 25 26  2  0  0  0
 26 27  1  0  0  0
 12  1  1  0  0  0
 26 20  1  0  0  0
 11  4  1  0  0  0
  7 13  1  0  0  0
  7 14  1  0  0  0
 10 15  1  0  0  0
 10 16  1  0  0  0
M  END
> <minimizedAffinity>
-6.88946

> <CNNscore>
0.3529767394

> <CNNaffinity>
6.3650193214

> <CNN_VS>
2.2467038631

> <CNNaffinity_variance>
0.1972306073

$$$$
[H]c1c([H])c(N(C([H])([H])[H])C([H])([H])c2nc3c(N([H])[H])nc(N([H])[H])nc3c([H])c2[H])c(Cl)c([H])c1Cl


 27 29  0  0  0  0  0  0  0  0999 V2000
   54.8360   -5.0804   -6.8138 C   0  0  0  0  0  0  0  0  0  0  0  0
   56.0979   -5.5629   -6.5586 C   0  0  0  0  0  0  0  0  0  0  0  0
   57.0951   -5.5033   -7.5350 C   0  0  0  0  0  0  0  0  0  0  0  0
   56.8135   -4.9555   -8.7680 C   0  0  0  0  0  0  0  0  0  0  0  0
   57.7360   -4.8720   -9.7471 N   0  0  0  0  0  0  0  0  0  0  0  0
   57.4809   -4.3409  -10.9570 C   0  0  0  0  0  0  0  0  0  0  0  0
   58.4806   -4.2663  -11.9758 N   0  0  0  0  0  0  0  0  0  0  0  0
   56.2314   -3.8773  -11.1717 N   0  0  0  0  0  0  0  0  0  0  0  0
   55.2780   -3.9387  -10.2262 C   0  0  0  0  0  0  0  0  0  0  0  0
   53.9676   -3.4456  -10.4697 N   0  0  0  0  0  0  0  0  0  0  0  0
   55.5373   -4.4824   -8.9860 C   0  0  0  0  0  0  0  0  0  0  0  0
   54.5892   -4.5527   -8.0214 N   0  0  0  0  0  0  0  0  0  0  0  0
   58.5478   -5.0214  -12.7156 H   0  0  0  0  0  0  0  0  0  0  0  0
   59.1734   -3.4996  -12.0504 H   0  0  0  0  0  0  0  0  0  0  0  0
   53.7629   -2.4319  -10.6109 H   0  0  0  0  0  0  0  0  0  0  0  0
   53.1960   -4.1478  -10.5039 H   0  0  0  0  0  0  0  0  0  0  0  0
   53.7838   -5.1222   -5.8109 C   0  0  0  0  0  0  0  0  0  0  0  0
   52.2786   -6.3546   -7.3208 C   0  0  0  0  0  0  0  0  0  0  0  0
   52.4487   -5.3383   -6.2936 N   0  0  0  0  0  0  0  0  0  0  0  0
   51.3001   -4.6477   -5.8685 C   0  0  0  0  0  0  0  0  0  0  0  0
   50.6262   -5.0435   -4.7386 C   0  0  0  0  0  0  0  0  0  0  0  0
   49.4758   -4.3590   -4.3209 C   0  0  0  0  0  0  0  0  0  0  0  0
   49.0013   -3.2847   -5.0289 C   0  0  0  0  0  0  0  0  0  0  0  0
   47.5469   -2.4282   -4.4909 Cl  0  0  0  0  0  0  0  0  0  0  0  0
   49.6696   -2.8871   -6.1553 C   0  0  0  0  0  0  0  0  0  0  0  0
   50.7926   -3.5644   -6.5528 C   0  0  0  0  0  0  0  0  0  0  0  0
   51.6444   -3.0368   -8.0115 Cl  0  0  0  0  0  0  0  0  0  0  0  0
 18 19  1  0  0  0
 19 17  1  0  0  0
 17  1  1  0  0  0
  1  2  2  0  0  0
  2  3  1  0  0  0
  3  4  2  0  0  0
  4  5  1  0  0  0
  5  6  2  0  0  0
  6  7  1  0  0  0
  6  8  1  0  0  0
  8  9  2  0  0  0
  9 10  1  0  0  0
  9 11  1  0  0  0
 11 12  2  0  0  0
 19 20  1  0  0  0
 20 21  2  0  0  0
 21 22  1  0  0  0
 22 23  2  0  0  0
 23 24  1  0  0  0
 23 25  1  0  0  0
 25 26  2  0  0  0
 26 27  1  0  0  0
 12  1  1  0  0  0
 26 20  1  0  0  0
 11  4  1  0  0  0
  7 13  1  0  0  0
  7 14  1  0  0  0
 10 15  1  0  0  0
 10 16  1  0  0  0
M  END
> <minimizedAffinity>
-9.03580

> <CNNscore>
0.3171794116

> <CNNaffinity>
6.5474028587

> <CNN_VS>
2.0767014027

> <CNNaffinity_variance>
0.1216892973

$$$$
[H]c1c([H])c(N(C([H])([H])[H])C([H])([H])c2nc3c(N([H])[H])nc(N([H])[H])nc3c([H])c2[H])c(Cl)c([H])c1Cl


 27 29  0  0  0  0  0  0  0  0999 V2000
   54.5552   -4.5980   -7.9773 C   0  0  0  0  0  0  0  0  0  0  0  0
   53.9122   -3.9009   -8.9728 C   0  0  0  0  0  0  0  0  0  0  0  0
   54.5648   -3.6045  -10.1717 C   0  0  0  0  0  0  0  0  0  0  0  0
   55.8671   -4.0143  -10.3612 C   0  0  0  0  0  0  0  0  0  0  0  0
   56.5456   -3.7565  -11.4970 N   0  0  0  0  0  0  0  0  0  0  0  0
   57.8169   -4.1477  -11.7012 C   0  0  0  0  0  0  0  0  0  0  0  0
   58.5105   -3.8593  -12.9172 N   0  0  0  0  0  0  0  0  0  0  0  0
   58.4162   -4.8298  -10.7023 N   0  0  0  0  0  0  0  0  0  0  0  0
   57.7804   -5.1105   -9.5517 C   0  0  0  0  0  0  0  0  0  0  0  0
   58.4270   -5.8298   -8.5104 N   0  0  0  0  0  0  0  0  0  0  0  0
   56.4780   -4.7106   -9.3405 C   0  0  0  0  0  0  0  0  0  0  0  0
   55.8217   -4.9845   -8.1878 N   0  0  0  0  0  0  0  0  0  0  0  0
   59.1365   -3.0076  -12.9868 H   0  0  0  0  0  0  0  0  0  0  0  0
   58.4462   -4.4421  -13.7713 H   0  0  0  0  0  0  0  0  0  0  0  0
   58.7025   -6.8323   -8.6034 H   0  0  0  0  0  0  0  0  0  0  0  0
   58.6229   -5.3101   -7.6266 H   0  0  0  0  0  0  0  0  0  0  0  0
   53.8945   -4.9269   -6.7244 C   0  0  0  0  0  0  0  0  0  0  0  0
   52.2665   -6.5941   -7.5207 C   0  0  0  0  0  0  0  0  0  0  0  0
   52.5246   -5.3481   -6.8153 N   0  0  0  0  0  0  0  0  0  0  0  0
   51.4169   -4.6572   -6.2932 C   0  0  0  0  0  0  0  0  0  0  0  0
   50.8255   -3.6445   -7.0089 C   0  0  0  0  0  0  0  0  0  0  0  0
   49.7263   -2.9506   -6.4830 C   0  0  0  0  0  0  0  0  0  0  0  0
   49.2209   -3.2671   -5.2481 C   0  0  0  0  0  0  0  0  0  0  0  0
   47.8318   -2.3829   -4.5947 Cl  0  0  0  0  0  0  0  0  0  0  0  0
   49.8071   -4.2752   -4.5317 C   0  0  0  0  0  0  0  0  0  0  0  0
   50.8806   -4.9457   -5.0568 C   0  0  0  0  0  0  0  0  0  0  0  0
   51.6264   -6.2464   -4.1169 Cl  0  0  0  0  0  0  0  0  0  0  0  0
 18 19  1  0  0  0
 19 17  1  0  0  0
 17  1  1  0  0  0
  1  2  2  0  0  0
  2  3  1  0  0  0
  3  4  2  0  0  0
  4  5  1  0  0  0
  5  6  2  0  0  0
  6  7  1  0  0  0
  6  8  1  0  0  0
  8  9  2  0  0  0
  9 10  1  0  0  0
  9 11  1  0  0  0
 11 12  2  0  0  0
 19 20  1  0  0  0
 20 21  2  0  0  0
 21 22  1  0  0  0
 22 23  2  0  0  0
 23 24  1  0  0  0
 23 25  1  0  0  0
 25 26  2  0  0  0
 26 27  1  0  0  0
 12  1  1  0  0  0
 26 20  1  0  0  0
 11  4  1  0  0  0
  7 13  1  0  0  0
  7 14  1  0  0  0
 10 15  1  0  0  0
 10 16  1  0  0  0
M  END
> <minimizedAffinity>
-9.49345

> <CNNscore>
0.2913078070

> <CNNaffinity>
6.2382164001

> <CNN_VS>
1.8172411919

> <CNNaffinity_variance>
0.2059632242

$$$$
[H]c1c([H])c(N(C([H])([H])[H])C([H])([H])c2nc3c(N([H])[H])nc(N([H])[H])nc3c([H])c2[H])c(Cl)c([H])c1Cl


 27 29  0  0  0  0  0  0  0  0999 V2000
   55.9482   -4.7993   -7.0202 C   0  0  0  0  0  0  0  0  0  0  0  0
   55.0493   -4.0146   -7.7033 C   0  0  0  0  0  0  0  0  0  0  0  0
   55.2569   -3.6975   -9.0477 C   0  0  0  0  0  0  0  0  0  0  0  0
   56.3740   -4.1752   -9.6987 C   0  0  0  0  0  0  0  0  0  0  0  0
   56.6252   -3.9014  -10.9943 N   0  0  0  0  0  0  0  0  0  0  0  0
   57.7095   -4.3580  -11.6475 C   0  0  0  0  0  0  0  0  0  0  0  0
   57.9488   -4.0504  -13.0227 N   0  0  0  0  0  0  0  0  0  0  0  0
   58.5700   -5.1253  -10.9453 N   0  0  0  0  0  0  0  0  0  0  0  0
   58.3621   -5.4254   -9.6517 C   0  0  0  0  0  0  0  0  0  0  0  0
   59.2789   -6.2348   -8.9277 N   0  0  0  0  0  0  0  0  0  0  0  0
   57.2519   -4.9585   -8.9806 C   0  0  0  0  0  0  0  0  0  0  0  0
   57.0262   -5.2506   -7.6775 N   0  0  0  0  0  0  0  0  0  0  0  0
   58.5718   -3.2358  -13.2880 H   0  0  0  0  0  0  0  0  0  0  0  0
   57.5438   -4.5839  -13.8131 H   0  0  0  0  0  0  0  0  0  0  0  0
   59.4280   -7.2460   -9.1388 H   0  0  0  0  0  0  0  0  0  0  0  0
   59.8124   -5.7737   -8.1580 H   0  0  0  0  0  0  0  0  0  0  0  0
   55.7496   -5.1512   -5.6234 C   0  0  0  0  0  0  0  0  0  0  0  0
   55.0563   -7.5141   -5.6111 C   0  0  0  0  0  0  0  0  0  0  0  0
   54.7275   -6.1215   -5.3475 N   0  0  0  0  0  0  0  0  0  0  0  0
   53.4398   -5.8410   -4.8576 C   0  0  0  0  0  0  0  0  0  0  0  0
   52.4144   -5.5418   -5.7216 C   0  0  0  0  0  0  0  0  0  0  0  0
   51.1328   -5.2537   -5.2309 C   0  0  0  0  0  0  0  0  0  0  0  0
   50.8774   -5.2642   -3.8836 C   0  0  0  0  0  0  0  0  0  0  0  0
   49.2540   -4.8984   -3.2761 Cl  0  0  0  0  0  0  0  0  0  0  0  0
   51.8961   -5.5616   -3.0193 C   0  0  0  0  0  0  0  0  0  0  0  0
   53.1440   -5.8415   -3.5115 C   0  0  0  0  0  0  0  0  0  0  0  0
   54.4495   -6.2239   -2.3798 Cl  0  0  0  0  0  0  0  0  0  0  0  0
 18 19  1  0  0  0
 19 17  1  0  0  0
 17  1  1  0  0  0
  1  2  2  0  0  0
  2  3  1  0  0  0
  3  4  2  0  0  0
  4  5  1  0  0  0
  5  6  2  0  0  0
  6  7  1  0  0  0
  6  8  1  0  0  0
  8  9  2  0  0  0
  9 10  1  0  0  0
  9 11  1  0  0  0
 11 12  2  0  0  0
 19 20  1  0  0  0
 20 21  2  0  0  0
 21 22  1  0  0  0
 22 23  2  0  0  0
 23 24  1  0  0  0
 23 25  1  0  0  0
 25 26  2  0  0  0
 26 27  1  0  0  0
 12  1  1  0  0  0
 26 20  1  0  0  0
 11  4  1  0  0  0
  7 13  1  0  0  0
  7 14  1  0  0  0
 10 15  1  0  0  0
 10 16  1  0  0  0
M  END
> <minimizedAffinity>
-8.71242

> <CNNscore>
0.2346930504

> <CNNaffinity>
5.9100632668

> <CNN_VS>
1.3870507479

> <CNNaffinity_variance>
0.1825351268

$$$$
[H]c1nc(Oc2c([H])c([H])c(N([H])C(=O)N([H])c3c([H])c([H])c(C([H])([H])N4C([H])([H])C([H])([H])N(C([H])([H])[H])C([H])([H])C4([H])[H])c(C(F)(F)F)c3[H])c([H])c2[H])c([H])c(N([H])C2([H])C([H])([H])C2([H])[H])n1


 42 46  0  0  0  0  0  0  0  0999 V2000
   60.5140   -6.6209   -8.8698 N   0  0  0  0  0  0  0  0  0  0  0  0
   59.2414   -6.1062   -9.2180 C   0  0  0  0  0  0  0  0  0  0  0  0
   58.6989   -6.3048  -10.3273 O   0  0  0  0  0  0  0  0  0  0  0  0
   58.5650   -5.3265   -8.2402 N   0  0  0  0  0  0  0  0  0  0  0  0
   60.8721   -6.3814   -7.8891 H   0  0  0  0  0  0  0  0  0  0  0  0
   59.0448   -5.1586   -7.2894 H   0  0  0  0  0  0  0  0  0  0  0  0
   63.0804   -9.1486  -11.1515 C   0  0  0  0  0  0  0  0  0  0  0  0
   62.2604   -9.5969  -10.1326 C   0  0  0  0  0  0  0  0  0  0  0  0
   61.4356   -8.7974   -9.3910 C   0  0  0  0  0  0  0  0  0  0  0  0
   61.3787   -7.4142   -9.6430 C   0  0  0  0  0  0  0  0  0  0  0  0
   62.1780   -6.9559  -10.6430 C   0  0  0  0  0  0  0  0  0  0  0  0
   63.0207   -7.7860  -11.3962 C   0  0  0  0  0  0  0  0  0  0  0  0
   63.8591   -7.1740  -12.4551 C   0  0  0  0  0  0  0  0  0  0  0  0
   63.5258   -7.7221  -13.6718 F   0  0  0  0  0  0  0  0  0  0  0  0
   65.2110   -7.4526  -12.2020 F   0  0  0  0  0  0  0  0  0  0  0  0
   63.7685   -5.7899  -12.4758 F   0  0  0  0  0  0  0  0  0  0  0  0
   63.9136  -10.0432  -11.9666 C   0  0  0  0  0  0  0  0  0  0  0  0
   64.9863  -14.7988  -11.3004 C   0  0  0  0  0  0  0  0  0  0  0  0
   64.8898  -13.8884  -12.4248 N   0  0  0  0  0  0  0  0  0  0  0  0
   65.6497  -12.7141  -12.1238 C   0  0  0  0  0  0  0  0  0  0  0  0
   64.9446  -11.9336  -11.0299 C   0  0  0  0  0  0  0  0  0  0  0  0
   63.7272  -11.4198  -11.5831 N   0  0  0  0  0  0  0  0  0  0  0  0
   63.1802  -12.1457  -12.6784 C   0  0  0  0  0  0  0  0  0  0  0  0
   63.4875  -13.6199  -12.6484 C   0  0  0  0  0  0  0  0  0  0  0  0
   57.2931   -4.7658   -8.4506 C   0  0  0  0  0  0  0  0  0  0  0  0
   56.3927   -4.3943   -7.4884 C   0  0  0  0  0  0  0  0  0  0  0  0
   55.1536   -3.8791   -7.8027 C   0  0  0  0  0  0  0  0  0  0  0  0
   54.8068   -3.7312   -9.1178 C   0  0  0  0  0  0  0  0  0  0  0  0
   55.6996   -4.0986  -10.1105 C   0  0  0  0  0  0  0  0  0  0  0  0
   56.9233   -4.6078   -9.7946 C   0  0  0  0  0  0  0  0  0  0  0  0
   53.5827   -3.2220   -9.5291 O   0  0  0  0  0  0  0  0  0  0  0  0
   52.5229   -3.0083   -8.6634 C   0  0  0  0  0  0  0  0  0  0  0  0
   52.1630   -4.0088   -7.7586 C   0  0  0  0  0  0  0  0  0  0  0  0
   51.1368   -3.8826   -6.8741 C   0  0  0  0  0  0  0  0  0  0  0  0
   50.4515   -2.7041   -6.9065 N   0  0  0  0  0  0  0  0  0  0  0  0
   50.7668   -1.7183   -7.7613 C   0  0  0  0  0  0  0  0  0  0  0  0
   51.7989   -1.8795   -8.6311 N   0  0  0  0  0  0  0  0  0  0  0  0
   50.7260   -4.8578   -5.9303 N   0  0  0  0  0  0  0  0  0  0  0  0
   49.7617   -4.8481   -5.5056 H   0  0  0  0  0  0  0  0  0  0  0  0
   51.6415   -5.8937   -5.5335 C   0  0  0  0  0  0  0  0  0  0  0  0
   52.8564   -5.6659   -4.7515 C   0  0  0  0  0  0  0  0  0  0  0  0
   51.6466   -6.1932   -4.0001 C   0  0  0  0  0  0  0  0  0  0  0  0
 18 19  1  0  0  0
 19 20  1  0  0  0
 20 21  1  0  0  0
 21 22  1  0  0  0
 22 17  1  0  0  0
 17  7  1  0  0  0
  7  8  2  0  0  0
  8  9  1  0  0  0
  9 10  2  0  0  0
 10  1  1  0  0  0
  1  2  1  0  0  0
  2  3  2  0  0  0
  2  4  1  0  0  0
  4 25  1  0  0  0
 25 26  2  0  0  0
 26 27  1  0  0  0
 27 28  2  0  0  0
 28 31  1  0  0  0
 31 32  1  0  0  0
 32 33  2  0  0  0
 33 34  1  0  0  0
 34 38  1  0  0  0
 38 40  1  0  0  0
 40 41  1  0  0  0
 41 42  1  0  0  0
 34 35  2  0  0  0
 35 36  1  0  0  0
 36 37  2  0  0  0
 28 29  1  0  0  0
 29 30  2  0  0  0
 10 11  1  0  0  0
 11 12  2  0  0  0
 12 13  1  0  0  0
 13 14  1  0  0  0
 13 15  1  0  0  0
 13 16  1  0  0  0
 22 23  1  0  0  0
 23 24  1  0  0  0
 24 19  1  0  0  0
 12  7  1  0  0  0
 30 25  1  0  0  0
 37 32  1  0  0  0
 42 40  1  0  0  0
  1  5  1  0  0  0
  4  6  1  0  0  0
 38 39  1  0  0  0
M  END
> <minimizedAffinity>
-8.32433

> <CNNscore>
0.3827640116

> <CNNaffinity>
6.2905073166

> <CNN_VS>
2.4077799320

> <CNNaffinity_variance>
0.0915146917

$$$$
[H]c1nc(Oc2c([H])c([H])c(N([H])C(=O)N([H])c3c([H])c([H])c(C([H])([H])N4C([H])([H])C([H])([H])N(C([H])([H])[H])C([H])([H])C4([H])[H])c(C(F)(F)F)c3[H])c([H])c2[H])c([H])c(N([H])C2([H])C([H])([H])C2([H])[H])n1


 42 46  0  0  0  0  0  0  0  0999 V2000
   57.3830   -3.8723  -11.1125 N   0  0  0  0  0  0  0  0  0  0  0  0
   56.0836   -3.9878  -10.5612 C   0  0  0  0  0  0  0  0  0  0  0  0
   55.0436   -4.0333  -11.2545 O   0  0  0  0  0  0  0  0  0  0  0  0
   55.9813   -4.0536   -9.1446 N   0  0  0  0  0  0  0  0  0  0  0  0
   58.1951   -3.8430  -10.4147 H   0  0  0  0  0  0  0  0  0  0  0  0
   56.8846   -4.0090   -8.5577 H   0  0  0  0  0  0  0  0  0  0  0  0
   58.6570   -3.6285  -15.1744 C   0  0  0  0  0  0  0  0  0  0  0  0
   59.5049   -3.5038  -14.0895 C   0  0  0  0  0  0  0  0  0  0  0  0
   59.1095   -3.5763  -12.7827 C   0  0  0  0  0  0  0  0  0  0  0  0
   57.7561   -3.7932  -12.4651 C   0  0  0  0  0  0  0  0  0  0  0  0
   56.9078   -3.9197  -13.5203 C   0  0  0  0  0  0  0  0  0  0  0  0
   57.3253   -3.8424  -14.8568 C   0  0  0  0  0  0  0  0  0  0  0  0
   56.3091   -3.9821  -15.9276 C   0  0  0  0  0  0  0  0  0  0  0  0
   55.2341   -4.6908  -15.4440 F   0  0  0  0  0  0  0  0  0  0  0  0
   56.8582   -4.6948  -17.0045 F   0  0  0  0  0  0  0  0  0  0  0  0
   55.9197   -2.7608  -16.4578 F   0  0  0  0  0  0  0  0  0  0  0  0
   59.1233   -3.6013  -16.5676 C   0  0  0  0  0  0  0  0  0  0  0  0
   59.8578    0.5595  -19.0891 C   0  0  0  0  0  0  0  0  0  0  0  0
   59.9919   -0.8621  -19.3408 N   0  0  0  0  0  0  0  0  0  0  0  0
   58.7770   -1.5084  -18.9492 C   0  0  0  0  0  0  0  0  0  0  0  0
   58.6595   -1.4697  -17.4367 C   0  0  0  0  0  0  0  0  0  0  0  0
   59.6841   -2.3168  -16.9030 N   0  0  0  0  0  0  0  0  0  0  0  0
   60.8343   -2.5021  -17.7207 C   0  0  0  0  0  0  0  0  0  0  0  0
   61.1481   -1.3266  -18.6086 C   0  0  0  0  0  0  0  0  0  0  0  0
   54.7552   -4.1803   -8.4684 C   0  0  0  0  0  0  0  0  0  0  0  0
   54.4027   -5.1704   -7.5909 C   0  0  0  0  0  0  0  0  0  0  0  0
   53.1577   -5.2197   -7.0017 C   0  0  0  0  0  0  0  0  0  0  0  0
   52.2401   -4.2495   -7.2993 C   0  0  0  0  0  0  0  0  0  0  0  0
   52.5718   -3.2365   -8.1832 C   0  0  0  0  0  0  0  0  0  0  0  0
   53.8039   -3.1925   -8.7634 C   0  0  0  0  0  0  0  0  0  0  0  0
   50.9635   -4.2173   -6.7554 O   0  0  0  0  0  0  0  0  0  0  0  0
   50.6801   -4.6348   -5.4655 C   0  0  0  0  0  0  0  0  0  0  0  0
   51.5788   -5.4721   -4.8018 C   0  0  0  0  0  0  0  0  0  0  0  0
   51.3794   -5.9286   -3.5357 C   0  0  0  0  0  0  0  0  0  0  0  0
   50.2315   -5.5243   -2.9204 N   0  0  0  0  0  0  0  0  0  0  0  0
   49.3429   -4.7199   -3.5247 C   0  0  0  0  0  0  0  0  0  0  0  0
   49.5754   -4.2830   -4.7907 N   0  0  0  0  0  0  0  0  0  0  0  0
   52.2537   -6.7753   -2.8082 N   0  0  0  0  0  0  0  0  0  0  0  0
   52.0226   -7.7870   -2.6253 H   0  0  0  0  0  0  0  0  0  0  0  0
   53.4931   -6.2507   -2.3006 C   0  0  0  0  0  0  0  0  0  0  0  0
   53.5916   -5.1625   -1.3282 C   0  0  0  0  0  0  0  0  0  0  0  0
   53.7589   -6.5748   -0.7955 C   0  0  0  0  0  0  0  0  0  0  0  0
 18 19  1  0  0  0
 19 20  1  0  0  0
 20 21  1  0  0  0
 21 22  1  0  0  0
 22 17  1  0  0  0
 17  7  1  0  0  0
  7  8  2  0  0  0
  8  9  1  0  0  0
  9 10  2  0  0  0
 10  1  1  0  0  0
  1  2  1  0  0  0
  2  3  2  0  0  0
  2  4  1  0  0  0
  4 25  1  0  0  0
 25 26  2  0  0  0
 26 27  1  0  0  0
 27 28  2  0  0  0
 28 31  1  0  0  0
 31 32  1  0  0  0
 32 33  2  0  0  0
 33 34  1  0  0  0
 34 38  1  0  0  0
 38 40  1  0  0  0
 40 41  1  0  0  0
 41 42  1  0  0  0
 34 35  2  0  0  0
 35 36  1  0  0  0
 36 37  2  0  0  0
 28 29  1  0  0  0
 29 30  2  0  0  0
 10 11  1  0  0  0
 11 12  2  0  0  0
 12 13  1  0  0  0
 13 14  1  0  0  0
 13 15  1  0  0  0
 13 16  1  0  0  0
 22 23  1  0  0  0
 23 24  1  0  0  0
 24 19  1  0  0  0
 12  7  1  0  0  0
 30 25  1  0  0  0
 37 32  1  0  0  0
 42 40  1  0  0  0
  1  5  1  0  0  0
  4  6  1  0  0  0
 38 39  1  0  0  0
M  END
> <minimizedAffinity>
-8.34327

> <CNNscore>
0.2443082929

> <CNNaffinity>
6.6565728188

> <CNN_VS>
1.6262559891

> <CNNaffinity_variance>
0.2581066489

$$$$
[H]c1nc(Oc2c([H])c([H])c(N([H])C(=O)N([H])c3c([H])c([H])c(C([H])([H])N4C([H])([H])C([H])([H])N(C([H])([H])[H])C([H])([H])C4([H])[H])c(C(F)(F)F)c3[H])c([H])c2[H])c([H])c(N([H])C2([H])C([H])([H])C2([H])[H])n1


 42 46  0  0  0  0  0  0  0  0999 V2000
   61.5492   -6.9905   -8.7966 N   0  0  0  0  0  0  0  0  0  0  0  0
   60.2083   -6.7170   -9.1609 C   0  0  0  0  0  0  0  0  0  0  0  0
   59.5531   -7.4259   -9.9562 O   0  0  0  0  0  0  0  0  0  0  0  0
   59.5965   -5.5726   -8.5800 N   0  0  0  0  0  0  0  0  0  0  0  0
   62.0032   -6.3089   -8.1062 H   0  0  0  0  0  0  0  0  0  0  0  0
   60.1730   -4.9669   -7.8993 H   0  0  0  0  0  0  0  0  0  0  0  0
   64.0247  -10.2649   -9.9505 C   0  0  0  0  0  0  0  0  0  0  0  0
   63.4923  -10.1070   -8.6844 C   0  0  0  0  0  0  0  0  0  0  0  0
   62.7004   -9.0608   -8.3000 C   0  0  0  0  0  0  0  0  0  0  0  0
   62.3730   -8.0475   -9.2197 C   0  0  0  0  0  0  0  0  0  0  0  0
   62.8872   -8.1874  -10.4707 C   0  0  0  0  0  0  0  0  0  0  0  0
   63.6993   -9.2649  -10.8528 C   0  0  0  0  0  0  0  0  0  0  0  0
   64.2154   -9.3076  -12.2423 C   0  0  0  0  0  0  0  0  0  0  0  0
   65.5905   -9.3241  -12.2158 F   0  0  0  0  0  0  0  0  0  0  0  0
   63.8019   -8.1572  -12.9313 F   0  0  0  0  0  0  0  0  0  0  0  0
   63.7052  -10.3729  -12.9696 F   0  0  0  0  0  0  0  0  0  0  0  0
   64.8267  -11.4307  -10.3468 C   0  0  0  0  0  0  0  0  0  0  0  0
   61.2376  -14.7377  -10.9731 C   0  0  0  0  0  0  0  0  0  0  0  0
   61.3396  -13.3712  -10.4988 N   0  0  0  0  0  0  0  0  0  0  0  0
   62.0809  -12.6124  -11.4588 C   0  0  0  0  0  0  0  0  0  0  0  0
   63.5307  -13.0601  -11.4329 C   0  0  0  0  0  0  0  0  0  0  0  0
   64.0847  -12.6543  -10.1757 N   0  0  0  0  0  0  0  0  0  0  0  0
   63.1615  -12.5012   -9.1032 C   0  0  0  0  0  0  0  0  0  0  0  0
   61.9627  -13.4083   -9.1953 C   0  0  0  0  0  0  0  0  0  0  0  0
   58.2693   -5.1930   -8.8460 C   0  0  0  0  0  0  0  0  0  0  0  0
   57.2408   -5.1255   -7.9448 C   0  0  0  0  0  0  0  0  0  0  0  0
   55.9622   -4.7686   -8.3160 C   0  0  0  0  0  0  0  0  0  0  0  0
   55.7069   -4.4704   -9.6265 C   0  0  0  0  0  0  0  0  0  0  0  0
   56.7298   -4.5303  -10.5578 C   0  0  0  0  0  0  0  0  0  0  0  0
   57.9921   -4.8839  -10.1860 C   0  0  0  0  0  0  0  0  0  0  0  0
   54.4523   -4.1016  -10.0923 O   0  0  0  0  0  0  0  0  0  0  0  0
   53.4433   -3.6399   -9.2633 C   0  0  0  0  0  0  0  0  0  0  0  0
   53.0318   -4.4212   -8.1818 C   0  0  0  0  0  0  0  0  0  0  0  0
   52.0497   -4.0447   -7.3188 C   0  0  0  0  0  0  0  0  0  0  0  0
   51.4639   -2.8368   -7.5584 N   0  0  0  0  0  0  0  0  0  0  0  0
   51.8315   -2.0568   -8.5872 C   0  0  0  0  0  0  0  0  0  0  0  0
   52.8171   -2.4654   -9.4294 N   0  0  0  0  0  0  0  0  0  0  0  0
   51.5910   -4.7895   -6.2029 N   0  0  0  0  0  0  0  0  0  0  0  0
   50.6912   -4.5520   -5.7084 H   0  0  0  0  0  0  0  0  0  0  0  0
   52.3660   -5.9020   -5.7229 C   0  0  0  0  0  0  0  0  0  0  0  0
   53.5372   -5.7784   -4.8555 C   0  0  0  0  0  0  0  0  0  0  0  0
   52.2287   -6.1659   -4.1891 C   0  0  0  0  0  0  0  0  0  0  0  0
 18 19  1  0  0  0
 19 20  1  0  0  0
 20 21  1  0  0  0
 21 22  1  0  0  0
 22 17  1  0  0  0
 17  7  1  0  0  0
  7  8  2  0  0  0
  8  9  1  0  0  0
  9 10  2  0  0  0
 10  1  1  0  0  0
  1  2  1  0  0  0
  2  3  2  0  0  0
  2  4  1  0  0  0
  4 25  1  0  0  0
 25 26  2  0  0  0
 26 27  1  0  0  0
 27 28  2  0  0  0
 28 31  1  0  0  0
 31 32  1  0  0  0
 32 33  2  0  0  0
 33 34  1  0  0  0
 34 38  1  0  0  0
 38 40  1  0  0  0
 40 41  1  0  0  0
 41 42  1  0  0  0
 34 35  2  0  0  0
 35 36  1  0  0  0
 36 37  2  0  0  0
 28 29  1  0  0  0
 29 30  2  0  0  0
 10 11  1  0  0  0
 11 12  2  0  0  0
 12 13  1  0  0  0
 13 14  1  0  0  0
 13 15  1  0  0  0
 13 16  1  0  0  0
 22 23  1  0  0  0
 23 24  1  0  0  0
 24 19  1  0  0  0
 12  7  1  0  0  0
 30 25  1  0  0  0
 37 32  1  0  0  0
 42 40  1  0  0  0
  1  5  1  0  0  0
  4  6  1  0  0  0
 38 39  1  0  0  0
M  END
> <minimizedAffinity>
-7.89175

> <CNNscore>
0.2104158103

> <CNNaffinity>
6.0968551636

> <CNN_VS>
1.2828747034

> <CNNaffinity_variance>
0.0928958207

$$$$
[H]c1nc(Oc2c([H])c([H])c(N([H])C(=O)N([H])c3c([H])c([H])c(C([H])([H])N4C([H])([H])C([H])([H])N(C([H])([H])[H])C([H])([H])C4([H])[H])c(C(F)(F)F)c3[H])c([H])c2[H])c([H])c(N([H])C2([H])C([H])([H])C2([H])[H])n1


 42 46  0  0  0  0  0  0  0  0999 V2000
   61.4393   -7.0391   -9.7095 N   0  0  0  0  0  0  0  0  0  0  0  0
   60.0525   -6.7524   -9.6929 C   0  0  0  0  0  0  0  0  0  0  0  0
   59.1869   -7.5126  -10.1797 O   0  0  0  0  0  0  0  0  0  0  0  0
   59.6475   -5.5319   -9.0864 N   0  0  0  0  0  0  0  0  0  0  0  0
   62.0816   -6.3089   -9.2605 H   0  0  0  0  0  0  0  0  0  0  0  0
   60.4034   -4.8829   -8.6742 H   0  0  0  0  0  0  0  0  0  0  0  0
   63.3470  -10.5403  -11.2206 C   0  0  0  0  0  0  0  0  0  0  0  0
   62.4858  -10.5350  -10.1390 C   0  0  0  0  0  0  0  0  0  0  0  0
   61.8703   -9.4198   -9.6421 C   0  0  0  0  0  0  0  0  0  0  0  0
   62.0941   -8.1648  -10.2377 C   0  0  0  0  0  0  0  0  0  0  0  0
   62.9377   -8.1516  -11.3039 C   0  0  0  0  0  0  0  0  0  0  0  0
   63.5640   -9.3023  -11.8040 C   0  0  0  0  0  0  0  0  0  0  0  0
   64.4760   -9.1670  -12.9654 C   0  0  0  0  0  0  0  0  0  0  0  0
   65.7318   -8.8263  -12.5196 F   0  0  0  0  0  0  0  0  0  0  0  0
   64.0145   -8.1430  -13.8067 F   0  0  0  0  0  0  0  0  0  0  0  0
   64.5059  -10.3055  -13.7573 F   0  0  0  0  0  0  0  0  0  0  0  0
   63.9486  -11.7657  -11.7644 C   0  0  0  0  0  0  0  0  0  0  0  0
   64.9714  -15.6873   -8.9742 C   0  0  0  0  0  0  0  0  0  0  0  0
   65.1257  -15.3170  -10.3676 N   0  0  0  0  0  0  0  0  0  0  0  0
   65.7518  -14.0320  -10.4285 C   0  0  0  0  0  0  0  0  0  0  0  0
   64.7761  -12.9806   -9.9331 C   0  0  0  0  0  0  0  0  0  0  0  0
   63.7164  -12.8896  -10.8927 N   0  0  0  0  0  0  0  0  0  0  0  0
   63.4776  -14.0539  -11.6760 C   0  0  0  0  0  0  0  0  0  0  0  0
   63.8135  -15.3426  -10.9726 C   0  0  0  0  0  0  0  0  0  0  0  0
   58.3035   -5.1303   -8.9920 C   0  0  0  0  0  0  0  0  0  0  0  0
   57.5337   -5.1065   -7.8600 C   0  0  0  0  0  0  0  0  0  0  0  0
   56.2103   -4.7220   -7.8806 C   0  0  0  0  0  0  0  0  0  0  0  0
   55.6421   -4.3503   -9.0682 C   0  0  0  0  0  0  0  0  0  0  0  0
   56.3992   -4.3647  -10.2276 C   0  0  0  0  0  0  0  0  0  0  0  0
   57.7071   -4.7460  -10.2021 C   0  0  0  0  0  0  0  0  0  0  0  0
   54.3186   -3.9488   -9.1857 O   0  0  0  0  0  0  0  0  0  0  0  0
   53.3108   -4.4133   -8.3568 C   0  0  0  0  0  0  0  0  0  0  0  0
   52.3810   -3.5121   -7.8349 C   0  0  0  0  0  0  0  0  0  0  0  0
   51.3607   -3.8822   -7.0143 C   0  0  0  0  0  0  0  0  0  0  0  0
   51.2788   -5.2093   -6.7115 N   0  0  0  0  0  0  0  0  0  0  0  0
   52.1531   -6.1067   -7.1932 C   0  0  0  0  0  0  0  0  0  0  0  0
   53.1602   -5.7006   -8.0109 N   0  0  0  0  0  0  0  0  0  0  0  0
   50.3848   -3.0178   -6.4568 N   0  0  0  0  0  0  0  0  0  0  0  0
   50.4292   -1.9730   -6.5864 H   0  0  0  0  0  0  0  0  0  0  0  0
   49.2997   -3.5699   -5.6910 C   0  0  0  0  0  0  0  0  0  0  0  0
   49.3284   -3.7652   -4.2417 C   0  0  0  0  0  0  0  0  0  0  0  0
   48.5873   -2.5425   -4.7540 C   0  0  0  0  0  0  0  0  0  0  0  0
 18 19  1  0  0  0
 19 20  1  0  0  0
 20 21  1  0  0  0
 21 22  1  0  0  0
 22 17  1  0  0  0
 17  7  1  0  0  0
  7  8  2  0  0  0
  8  9  1  0  0  0
  9 10  2  0  0  0
 10  1  1  0  0  0
  1  2  1  0  0  0
  2  3  2  0  0  0
  2  4  1  0  0  0
  4 25  1  0  0  0
 25 26  2  0  0  0
 26 27  1  0  0  0
 27 28  2  0  0  0
 28 31  1  0  0  0
 31 32  1  0  0  0
 32 33  2  0  0  0
 33 34  1  0  0  0
 34 38  1  0  0  0
 38 40  1  0  0  0
 40 41  1  0  0  0
 41 42  1  0  0  0
 34 35  2  0  0  0
 35 36  1  0  0  0
 36 37  2  0  0  0
 28 29  1  0  0  0
 29 30  2  0  0  0
 10 11  1  0  0  0
 11 12  2  0  0  0
 12 13  1  0  0  0
 13 14  1  0  0  0
 13 15  1  0  0  0
 13 16  1  0  0  0
 22 23  1  0  0  0
 23 24  1  0  0  0
 24 19  1  0  0  0
 12  7  1  0  0  0
 30 25  1  0  0  0
 37 32  1  0  0  0
 42 40  1  0  0  0
  1  5  1  0  0  0
  4  6  1  0  0  0
 38 39  1  0  0  0
M  END
> <minimizedAffinity>
-7.21487

> <CNNscore>
0.2002791315

> <CNNaffinity>
5.8404083252

> <CNN_VS>
1.1697119474

> <CNNaffinity_variance>
0.4239223003

$$$$
[H]c1nc(Oc2c([H])c([H])c(N([H])C(=O)N([H])c3c([H])c([H])c(C([H])([H])N4C([H])([H])C([H])([H])N(C([H])([H])[H])C([H])([H])C4([H])[H])c(C(F)(F)F)c3[H])c([H])c2[H])c([H])c(N([H])C2([H])C([H])([H])C2([H])[H])n1


 42 46  0  0  0  0  0  0  0  0999 V2000
   54.0956   -4.0933   -9.4487 N   0  0  0  0  0  0  0  0  0  0  0  0
   55.3460   -4.2109  -10.1031 C   0  0  0  0  0  0  0  0  0  0  0  0
   56.3352   -4.7863   -9.5984 O   0  0  0  0  0  0  0  0  0  0  0  0
   55.4586   -3.6379  -11.3994 N   0  0  0  0  0  0  0  0  0  0  0  0
   53.3248   -3.5775   -9.9846 H   0  0  0  0  0  0  0  0  0  0  0  0
   54.6003   -3.1408  -11.8220 H   0  0  0  0  0  0  0  0  0  0  0  0
   53.1103   -5.5521   -5.5651 C   0  0  0  0  0  0  0  0  0  0  0  0
   54.3927   -5.5331   -6.0813 C   0  0  0  0  0  0  0  0  0  0  0  0
   54.7222   -5.0717   -7.3255 C   0  0  0  0  0  0  0  0  0  0  0  0
   53.7236   -4.5689   -8.1798 C   0  0  0  0  0  0  0  0  0  0  0  0
   52.4561   -4.5787   -7.6877 C   0  0  0  0  0  0  0  0  0  0  0  0
   52.1304   -5.0557   -6.4098 C   0  0  0  0  0  0  0  0  0  0  0  0
   50.7107   -5.0301   -5.9825 C   0  0  0  0  0  0  0  0  0  0  0  0
   50.3329   -6.2917   -5.5856 F   0  0  0  0  0  0  0  0  0  0  0  0
   49.9026   -4.6482   -7.0643 F   0  0  0  0  0  0  0  0  0  0  0  0
   50.4668   -4.0885   -4.9934 F   0  0  0  0  0  0  0  0  0  0  0  0
   52.7980   -6.0033   -4.2021 C   0  0  0  0  0  0  0  0  0  0  0  0
   55.7323   -7.8550   -0.7133 C   0  0  0  0  0  0  0  0  0  0  0  0
   54.5250   -7.0531   -0.7577 N   0  0  0  0  0  0  0  0  0  0  0  0
   53.5824   -7.7000   -1.6178 C   0  0  0  0  0  0  0  0  0  0  0  0
   54.0720   -7.6053   -3.0511 C   0  0  0  0  0  0  0  0  0  0  0  0
   54.0008   -6.2286   -3.4409 N   0  0  0  0  0  0  0  0  0  0  0  0
   54.0801   -5.2736   -2.3884 C   0  0  0  0  0  0  0  0  0  0  0  0
   54.8969   -5.7313   -1.2087 C   0  0  0  0  0  0  0  0  0  0  0  0
   56.6376   -3.6925  -12.1634 C   0  0  0  0  0  0  0  0  0  0  0  0
   57.9197   -3.7543  -11.6870 C   0  0  0  0  0  0  0  0  0  0  0  0
   59.0137   -3.7741  -12.5252 C   0  0  0  0  0  0  0  0  0  0  0  0
   58.8179   -3.7315  -13.8785 C   0  0  0  0  0  0  0  0  0  0  0  0
   57.5311   -3.6695  -14.3861 C   0  0  0  0  0  0  0  0  0  0  0  0
   56.4528   -3.6499  -13.5533 C   0  0  0  0  0  0  0  0  0  0  0  0
   59.8574   -3.7470  -14.7984 O   0  0  0  0  0  0  0  0  0  0  0  0
   61.1926   -3.7678  -14.4307 C   0  0  0  0  0  0  0  0  0  0  0  0
   61.8915   -2.5648  -14.3144 C   0  0  0  0  0  0  0  0  0  0  0  0
   63.2029   -2.4939  -13.9588 C   0  0  0  0  0  0  0  0  0  0  0  0
   63.8283   -3.6805  -13.7129 N   0  0  0  0  0  0  0  0  0  0  0  0
   63.1910   -4.8575  -13.8139 C   0  0  0  0  0  0  0  0  0  0  0  0
   61.8800   -4.8901  -14.1716 N   0  0  0  0  0  0  0  0  0  0  0  0
   63.9651   -1.3063  -13.8199 N   0  0  0  0  0  0  0  0  0  0  0  0
   64.8871   -1.1772  -14.3135 H   0  0  0  0  0  0  0  0  0  0  0  0
   63.4773   -0.2415  -12.9851 C   0  0  0  0  0  0  0  0  0  0  0  0
   64.2214    0.3366  -11.8664 C   0  0  0  0  0  0  0  0  0  0  0  0
   64.2295    1.1154  -13.1702 C   0  0  0  0  0  0  0  0  0  0  0  0
 18 19  1  0  0  0
 19 20  1  0  0  0
 20 21  1  0  0  0
 21 22  1  0  0  0
 22 17  1  0  0  0
 17  7  1  0  0  0
  7  8  2  0  0  0
  8  9  1  0  0  0
  9 10  2  0  0  0
 10  1  1  0  0  0
  1  2  1  0  0  0
  2  3  2  0  0  0
  2  4  1  0  0  0
  4 25  1  0  0  0
 25 26  2  0  0  0
 26 27  1  0  0  0
 27 28  2  0  0  0
 28 31  1  0  0  0
 31 32  1  0  0  0
 32 33  2  0  0  0
 33 34  1  0  0  0
 34 38  1  0  0  0
 38 40  1  0  0  0
 40 41  1  0  0  0
 41 42  1  0  0  0
 34 35  2  0  0  0
 35 36  1  0  0  0
 36 37  2  0  0  0
 28 29  1  0  0  0
 29 30  2  0  0  0
 10 11  1  0  0  0
 11 12  2  0  0  0
 12 13  1  0  0  0
 13 14  1  0  0  0
 13 15  1  0  0  0
 13 16  1  0  0  0
 22 23  1  0  0  0
 23 24  1  0  0  0
 24 19  1  0  0  0
 12  7  1  0  0  0
 30 25  1  0  0  0
 37 32  1  0  0  0
 42 40  1  0  0  0
  1  5  1  0  0  0
  4  6  1  0  0  0
 38 39  1  0  0  0
M  END
> <minimizedAffinity>
-9.27859

> <CNNscore>
0.1982275397

> <CNNaffinity>
6.4602270126

> <CNN_VS>
1.2805949450

> <CNNaffinity_variance>
0.3656265140

$$$$
[H]c1nc(Oc2c([H])c([H])c(N([H])C(=O)N([H])c3c([H])c([H])c(C([H])([H])N4C([H])([H])C([H])([H])N(C([H])([H])[H])C([H])([H])C4([H])[H])c(C(F)(F)F)c3[H])c([H])c2[H])c([H])c(N([H])C2([H])C([H])([H])C2([H])[H])n1


 42 46  0  0  0  0  0  0  0  0999 V2000
   55.3844   -3.9603  -10.3920 N   0  0  0  0  0  0  0  0  0  0  0  0
   56.5774   -3.9774  -11.1550 C   0  0  0  0  0  0  0  0  0  0  0  0
   57.6759   -4.3716  -10.7056 O   0  0  0  0  0  0  0  0  0  0  0  0
   56.4974   -3.5180  -12.4982 N   0  0  0  0  0  0  0  0  0  0  0  0
   54.5067   -3.5998  -10.8890 H   0  0  0  0  0  0  0  0  0  0  0  0
   55.5457   -3.1765  -12.8727 H   0  0  0  0  0  0  0  0  0  0  0  0
   54.9442   -5.1363   -6.3171 C   0  0  0  0  0  0  0  0  0  0  0  0
   56.1504   -4.7849   -6.8942 C   0  0  0  0  0  0  0  0  0  0  0  0
   56.3064   -4.4095   -8.1997 C   0  0  0  0  0  0  0  0  0  0  0  0
   55.1927   -4.3593   -9.0582 C   0  0  0  0  0  0  0  0  0  0  0  0
   53.9976   -4.7005   -8.5067 C   0  0  0  0  0  0  0  0  0  0  0  0
   53.8504   -5.0850   -7.1662 C   0  0  0  0  0  0  0  0  0  0  0  0
   52.4991   -5.4489   -6.6758 C   0  0  0  0  0  0  0  0  0  0  0  0
   52.6018   -6.5100   -5.8067 F   0  0  0  0  0  0  0  0  0  0  0  0
   51.6979   -5.8423   -7.7586 F   0  0  0  0  0  0  0  0  0  0  0  0
   51.8334   -4.3776   -6.0984 F   0  0  0  0  0  0  0  0  0  0  0  0
   54.8023   -5.4814   -4.8959 C   0  0  0  0  0  0  0  0  0  0  0  0
   58.2507   -6.7329   -1.6167 C   0  0  0  0  0  0  0  0  0  0  0  0
   56.9378   -6.1184   -1.5819 N   0  0  0  0  0  0  0  0  0  0  0  0
   56.0361   -6.9325   -2.3377 C   0  0  0  0  0  0  0  0  0  0  0  0
   56.3893   -6.8291   -3.8099 C   0  0  0  0  0  0  0  0  0  0  0  0
   56.0825   -5.4957   -4.2342 N   0  0  0  0  0  0  0  0  0  0  0  0
   56.1029   -4.4949   -3.2223 C   0  0  0  0  0  0  0  0  0  0  0  0
   57.0710   -4.7772   -2.1035 C   0  0  0  0  0  0  0  0  0  0  0  0
   57.6016   -3.4922  -13.3679 C   0  0  0  0  0  0  0  0  0  0  0  0
   58.9215   -3.5944  -13.0186 C   0  0  0  0  0  0  0  0  0  0  0  0
   59.9345   -3.5270  -13.9508 C   0  0  0  0  0  0  0  0  0  0  0  0
   59.6166   -3.3530  -15.2700 C   0  0  0  0  0  0  0  0  0  0  0  0
   58.2892   -3.2476  -15.6498 C   0  0  0  0  0  0  0  0  0  0  0  0
   57.2913   -3.3146  -14.7244 C   0  0  0  0  0  0  0  0  0  0  0  0
   60.5679   -3.2737  -16.2777 O   0  0  0  0  0  0  0  0  0  0  0  0
   61.3691   -4.3413  -16.6474 C   0  0  0  0  0  0  0  0  0  0  0  0
   60.8535   -5.3268  -17.4913 C   0  0  0  0  0  0  0  0  0  0  0  0
   61.5701   -6.4074  -17.9035 C   0  0  0  0  0  0  0  0  0  0  0  0
   62.8518   -6.4938  -17.4461 N   0  0  0  0  0  0  0  0  0  0  0  0
   63.3838   -5.5670  -16.6337 C   0  0  0  0  0  0  0  0  0  0  0  0
   62.6379   -4.5002  -16.2423 N   0  0  0  0  0  0  0  0  0  0  0  0
   61.1056   -7.4371  -18.7606 N   0  0  0  0  0  0  0  0  0  0  0  0
   61.4289   -7.5155  -19.7605 H   0  0  0  0  0  0  0  0  0  0  0  0
   60.1673   -8.4072  -18.2636 C   0  0  0  0  0  0  0  0  0  0  0  0
   58.7317   -8.1675  -18.1187 C   0  0  0  0  0  0  0  0  0  0  0  0
   59.1756   -8.9519  -19.3410 C   0  0  0  0  0  0  0  0  0  0  0  0
 18 19  1  0  0  0
 19 20  1  0  0  0
 20 21  1  0  0  0
 21 22  1  0  0  0
 22 17  1  0  0  0
 17  7  1  0  0  0
  7  8  2  0  0  0
  8  9  1  0  0  0
  9 10  2  0  0  0
 10  1  1  0  0  0
  1  2  1  0  0  0
  2  3  2  0  0  0
  2  4  1  0  0  0
  4 25  1  0  0  0
 25 26  2  0  0  0
 26 27  1  0  0  0
 27 28  2  0  0  0
 28 31  1  0  0  0
 31 32  1  0  0  0
 32 33  2  0  0  0
 33 34  1  0  0  0
 34 38  1  0  0  0
 38 40  1  0  0  0
 40 41  1  0  0  0
 41 42  1  0  0  0
 34 35  2  0  0  0
 35 36  1  0  0  0
 36 37  2  0  0  0
 28 29  1  0  0  0
 29 30  2  0  0  0
 10 11  1  0  0  0
 11 12  2  0  0  0
 12 13  1  0  0  0
 13 14  1  0  0  0
 13 15  1  0  0  0
 13 16  1  0  0  0
 22 23  1  0  0  0
 23 24  1  0  0  0
 24 19  1  0  0  0
 12  7  1  0  0  0
 30 25  1  0  0  0
 37 32  1  0  0  0
 42 40  1  0  0  0
  1  5  1  0  0  0
  4  6  1  0  0  0
 38 39  1  0  0  0
M  END
> <minimizedAffinity>
-7.42095

> <CNNscore>
0.1930115223

> <CNNaffinity>
6.4364480972

> <CNN_VS>
1.2423086166

> <CNNaffinity_variance>
0.2246089727

$$$$
[H]c1nc(Oc2c([H])c([H])c(N([H])C(=O)N([H])c3c([H])c([H])c(C([H])([H])N4C([H])([H])C([H])([H])N(C([H])([H])[H])C([H])([H])C4([H])[H])c(C(F)(F)F)c3[H])c([H])c2[H])c([H])c(N([H])C2([H])C([H])([H])C2([H])[H])n1


 42 46  0  0  0  0  0  0  0  0999 V2000
   55.3185   -3.9212  -10.1463 N   0  0  0  0  0  0  0  0  0  0  0  0
   56.5069   -3.9989  -10.9126 C   0  0  0  0  0  0  0  0  0  0  0  0
   57.5751   -4.4834  -10.4785 O   0  0  0  0  0  0  0  0  0  0  0  0
   56.4589   -3.4940  -12.2409 N   0  0  0  0  0  0  0  0  0  0  0  0
   54.4683   -3.4844  -10.6297 H   0  0  0  0  0  0  0  0  0  0  0  0
   55.5336   -3.0748  -12.6023 H   0  0  0  0  0  0  0  0  0  0  0  0
   54.7960   -5.1787   -6.1056 C   0  0  0  0  0  0  0  0  0  0  0  0
   56.0151   -4.8254   -6.6537 C   0  0  0  0  0  0  0  0  0  0  0  0
   56.1975   -4.4239   -7.9480 C   0  0  0  0  0  0  0  0  0  0  0  0
   55.0998   -4.3464   -8.8249 C   0  0  0  0  0  0  0  0  0  0  0  0
   53.8923   -4.6892   -8.3020 C   0  0  0  0  0  0  0  0  0  0  0  0
   53.7181   -5.1005   -6.9728 C   0  0  0  0  0  0  0  0  0  0  0  0
   52.3553   -5.4633   -6.5143 C   0  0  0  0  0  0  0  0  0  0  0  0
   52.4040   -6.6694   -5.8548 F   0  0  0  0  0  0  0  0  0  0  0  0
   51.5088   -5.6023   -7.6248 F   0  0  0  0  0  0  0  0  0  0  0  0
   51.7738   -4.4762   -5.7322 F   0  0  0  0  0  0  0  0  0  0  0  0
   54.6259   -5.5523   -4.6947 C   0  0  0  0  0  0  0  0  0  0  0  0
   57.3683   -8.7249   -2.1210 C   0  0  0  0  0  0  0  0  0  0  0  0
   56.3858   -7.7005   -1.8248 N   0  0  0  0  0  0  0  0  0  0  0  0
   55.2376   -7.9217   -2.6492 C   0  0  0  0  0  0  0  0  0  0  0  0
   55.5929   -7.6051   -4.0902 C   0  0  0  0  0  0  0  0  0  0  0  0
   55.8103   -6.1920   -4.1801 N   0  0  0  0  0  0  0  0  0  0  0  0
   56.2153   -5.5419   -2.9803 C   0  0  0  0  0  0  0  0  0  0  0  0
   57.0127   -6.4180   -2.0503 C   0  0  0  0  0  0  0  0  0  0  0  0
   57.5618   -3.5195  -13.1124 C   0  0  0  0  0  0  0  0  0  0  0  0
   58.8826   -3.5924  -12.7595 C   0  0  0  0  0  0  0  0  0  0  0  0
   59.8941   -3.5808  -13.6958 C   0  0  0  0  0  0  0  0  0  0  0  0
   59.5734   -3.4947  -15.0229 C   0  0  0  0  0  0  0  0  0  0  0  0
   58.2449   -3.4206  -15.4065 C   0  0  0  0  0  0  0  0  0  0  0  0
   57.2487   -3.4320  -14.4770 C   0  0  0  0  0  0  0  0  0  0  0  0
   60.5228   -3.4764  -16.0353 O   0  0  0  0  0  0  0  0  0  0  0  0
   61.0960   -4.6250  -16.5556 C   0  0  0  0  0  0  0  0  0  0  0  0
   62.2923   -5.1007  -16.0153 C   0  0  0  0  0  0  0  0  0  0  0  0
   62.9227   -6.2195  -16.4650 C   0  0  0  0  0  0  0  0  0  0  0  0
   62.3223   -6.8791  -17.4965 N   0  0  0  0  0  0  0  0  0  0  0  0
   61.1723   -6.4537  -18.0428 C   0  0  0  0  0  0  0  0  0  0  0  0
   60.5704   -5.3314  -17.5675 N   0  0  0  0  0  0  0  0  0  0  0  0
   64.1336   -6.7543  -15.9569 N   0  0  0  0  0  0  0  0  0  0  0  0
   65.0386   -6.2161  -15.9972 H   0  0  0  0  0  0  0  0  0  0  0  0
   64.1400   -8.0666  -15.3681 C   0  0  0  0  0  0  0  0  0  0  0  0
   64.6816   -9.2597  -16.0180 C   0  0  0  0  0  0  0  0  0  0  0  0
   65.5599   -8.5879  -14.9771 C   0  0  0  0  0  0  0  0  0  0  0  0
 18 19  1  0  0  0
 19 20  1  0  0  0
 20 21  1  0  0  0
 21 22  1  0  0  0
 22 17  1  0  0  0
 17  7  1  0  0  0
  7  8  2  0  0  0
  8  9  1  0  0  0
  9 10  2  0  0  0
 10  1  1  0  0  0
  1  2  1  0  0  0
  2  3  2  0  0  0
  2  4  1  0  0  0
  4 25  1  0  0  0
 25 26  2  0  0  0
 26 27  1  0  0  0
 27 28  2  0  0  0
 28 31  1  0  0  0
 31 32  1  0  0  0
 32 33  2  0  0  0
 33 34  1  0  0  0
 34 38  1  0  0  0
 38 40  1  0  0  0
 40 41  1  0  0  0
 41 42  1  0  0  0
 34 35  2  0  0  0
 35 36  1  0  0  0
 36 37  2  0  0  0
 28 29  1  0  0  0
 29 30  2  0  0  0
 10 11  1  0  0  0
 11 12  2  0  0  0
 12 13  1  0  0  0
 13 14  1  0  0  0
 13 15  1  0  0  0
 13 16  1  0  0  0
 22 23  1  0  0  0
 23 24  1  0  0  0
 24 19  1  0  0  0
 12  7  1  0  0  0
 30 25  1  0  0  0
 37 32  1  0  0  0
 42 40  1  0  0  0
  1  5  1  0  0  0
  4  6  1  0  0  0
 38 39  1  0  0  0
M  END
> <minimizedAffinity>
-7.29482

> <CNNscore>
0.1897765100

> <CNNaffinity>
6.4549345970

> <CNN_VS>
1.2249950171

> <CNNaffinity_variance>
0.3729718029

$$$$
[H]c1nc(Oc2c([H])c([H])c(N([H])C(=O)N([H])c3c([H])c([H])c(C([H])([H])N4C([H])([H])C([H])([H])N(C([H])([H])[H])C([H])([H])C4([H])[H])c(C(F)(F)F)c3[H])c([H])c2[H])c([H])c(N([H])C2([H])C([H])([H])C2([H])[H])n1


 42 46  0  0  0  0  0  0  0  0999 V2000
   54.1310   -4.0603   -9.3915 N   0  0  0  0  0  0  0  0  0  0  0  0
   55.3732   -4.1934  -10.0585 C   0  0  0  0  0  0  0  0  0  0  0  0
   56.3552   -4.7948   -9.5704 O   0  0  0  0  0  0  0  0  0  0  0  0
   55.4858   -3.6050  -11.3479 N   0  0  0  0  0  0  0  0  0  0  0  0
   53.3659   -3.5223   -9.9135 H   0  0  0  0  0  0  0  0  0  0  0  0
   54.6338   -3.0856  -11.7562 H   0  0  0  0  0  0  0  0  0  0  0  0
   53.1510   -5.5474   -5.5173 C   0  0  0  0  0  0  0  0  0  0  0  0
   54.4349   -5.5099   -6.0289 C   0  0  0  0  0  0  0  0  0  0  0  0
   54.7627   -5.0393   -7.2701 C   0  0  0  0  0  0  0  0  0  0  0  0
   53.7607   -4.5458   -8.1258 C   0  0  0  0  0  0  0  0  0  0  0  0
   52.4917   -4.5738   -7.6382 C   0  0  0  0  0  0  0  0  0  0  0  0
   52.1678   -5.0601   -6.3634 C   0  0  0  0  0  0  0  0  0  0  0  0
   50.7464   -5.0544   -5.9410 C   0  0  0  0  0  0  0  0  0  0  0  0
   50.3633   -6.3353   -5.6179 F   0  0  0  0  0  0  0  0  0  0  0  0
   49.9438   -4.6092   -7.0026 F   0  0  0  0  0  0  0  0  0  0  0  0
   50.5011   -4.1698   -4.9010 F   0  0  0  0  0  0  0  0  0  0  0  0
   52.8398   -6.0080   -4.1571 C   0  0  0  0  0  0  0  0  0  0  0  0
   55.7957   -7.8876   -0.7017 C   0  0  0  0  0  0  0  0  0  0  0  0
   54.5700   -7.1135   -0.7318 N   0  0  0  0  0  0  0  0  0  0  0  0
   53.6483   -7.7579   -1.6162 C   0  0  0  0  0  0  0  0  0  0  0  0
   54.1444   -7.6114   -3.0428 C   0  0  0  0  0  0  0  0  0  0  0  0
   54.0429   -6.2263   -3.3944 N   0  0  0  0  0  0  0  0  0  0  0  0
   54.0930   -5.2997   -2.3151 C   0  0  0  0  0  0  0  0  0  0  0  0
   54.9132   -5.7711   -1.1431 C   0  0  0  0  0  0  0  0  0  0  0  0
   56.6568   -3.6723  -12.1231 C   0  0  0  0  0  0  0  0  0  0  0  0
   57.9396   -3.7914  -11.6597 C   0  0  0  0  0  0  0  0  0  0  0  0
   59.0263   -3.8185  -12.5071 C   0  0  0  0  0  0  0  0  0  0  0  0
   58.8223   -3.7245  -13.8566 C   0  0  0  0  0  0  0  0  0  0  0  0
   57.5345   -3.6040  -14.3511 C   0  0  0  0  0  0  0  0  0  0  0  0
   56.4635   -3.5773  -13.5092 C   0  0  0  0  0  0  0  0  0  0  0  0
   59.8540   -3.7429  -14.7850 O   0  0  0  0  0  0  0  0  0  0  0  0
   61.1801   -3.5298  -14.4466 C   0  0  0  0  0  0  0  0  0  0  0  0
   61.9990   -4.6229  -14.1572 C   0  0  0  0  0  0  0  0  0  0  0  0
   63.3109   -4.5043  -13.8166 C   0  0  0  0  0  0  0  0  0  0  0  0
   63.8111   -3.2366  -13.7669 N   0  0  0  0  0  0  0  0  0  0  0  0
   63.0561   -2.1604  -14.0383 C   0  0  0  0  0  0  0  0  0  0  0  0
   61.7486   -2.3170  -14.3754 N   0  0  0  0  0  0  0  0  0  0  0  0
   64.1933   -5.5728  -13.5162 N   0  0  0  0  0  0  0  0  0  0  0  0
   64.9412   -5.8821  -14.1911 H   0  0  0  0  0  0  0  0  0  0  0  0
   64.0745   -6.2615  -12.2591 C   0  0  0  0  0  0  0  0  0  0  0  0
   63.1053   -7.3231  -11.9885 C   0  0  0  0  0  0  0  0  0  0  0  0
   64.5269   -7.7564  -12.3008 C   0  0  0  0  0  0  0  0  0  0  0  0
 18 19  1  0  0  0
 19 20  1  0  0  0
 20 21  1  0  0  0
 21 22  1  0  0  0
 22 17  1  0  0  0
 17  7  1  0  0  0
  7  8  2  0  0  0
  8  9  1  0  0  0
  9 10  2  0  0  0
 10  1  1  0  0  0
  1  2  1  0  0  0
  2  3  2  0  0  0
  2  4  1  0  0  0
  4 25  1  0  0  0
 25 26  2  0  0  0
 26 27  1  0  0  0
 27 28  2  0  0  0
 28 31  1  0  0  0
 31 32  1  0  0  0
 32 33  2  0  0  0
 33 34  1  0  0  0
 34 38  1  0  0  0
 38 40  1  0  0  0
 40 41  1  0  0  0
 41 42  1  0  0  0
 34 35  2  0  0  0
 35 36  1  0  0  0
 36 37  2  0  0  0
 28 29  1  0  0  0
 29 30  2  0  0  0
 10 11  1  0  0  0
 11 12  2  0  0  0
 12 13  1  0  0  0
 13 14  1  0  0  0
 13 15  1  0  0  0
 13 16  1  0  0  0
 22 23  1  0  0  0
 23 24  1  0  0  0
 24 19  1  0  0  0
 12  7  1  0  0  0
 30 25  1  0  0  0
 37 32  1  0  0  0
 42 40  1  0  0  0
  1  5  1  0  0  0
  4  6  1  0  0  0
 38 39  1  0  0  0
M  END
> <minimizedAffinity>
-8.83784

> <CNNscore>
0.1882901937

> <CNNaffinity>
6.4952630997

> <CNN_VS>
1.2229943275

> <CNNaffinity_variance>
0.4465049803

$$$$
[H]c1nc(Oc2c([H])c([H])c(N([H])C(=O)N([H])c3c([H])c([H])c(C([H])([H])N4C([H])([H])C([H])([H])N(C([H])([H])[H])C([H])([H])C4([H])[H])c(C(F)(F)F)c3[H])c([H])c2[H])c([H])c(N([H])C2([H])C([H])([H])C2([H])[H])n1


 42 46  0  0  0  0  0  0  0  0999 V2000
   61.4006   -6.9281   -9.4863 N   0  0  0  0  0  0  0  0  0  0  0  0
   60.0119   -6.6541   -9.5333 C   0  0  0  0  0  0  0  0  0  0  0  0
   59.1870   -7.3808  -10.1298 O   0  0  0  0  0  0  0  0  0  0  0  0
   59.5557   -5.4875   -8.8607 N   0  0  0  0  0  0  0  0  0  0  0  0
   62.0053   -6.2301   -8.9437 H   0  0  0  0  0  0  0  0  0  0  0  0
   60.2770   -4.8668   -8.3538 H   0  0  0  0  0  0  0  0  0  0  0  0
   63.4514  -10.2855  -11.1305 C   0  0  0  0  0  0  0  0  0  0  0  0
   62.6193  -10.3518  -10.0284 C   0  0  0  0  0  0  0  0  0  0  0  0
   61.9587   -9.2832   -9.4888 C   0  0  0  0  0  0  0  0  0  0  0  0
   62.1002   -8.0043  -10.0583 C   0  0  0  0  0  0  0  0  0  0  0  0
   62.9141   -7.9208  -11.1443 C   0  0  0  0  0  0  0  0  0  0  0  0
   63.5874   -9.0243  -11.6881 C   0  0  0  0  0  0  0  0  0  0  0  0
   64.4605   -8.8130  -12.8678 C   0  0  0  0  0  0  0  0  0  0  0  0
   63.8803   -9.3927  -13.9720 F   0  0  0  0  0  0  0  0  0  0  0  0
   65.7021   -9.4289  -12.6482 F   0  0  0  0  0  0  0  0  0  0  0  0
   64.7499   -7.4740  -13.0860 F   0  0  0  0  0  0  0  0  0  0  0  0
   64.1027  -11.4638  -11.7193 C   0  0  0  0  0  0  0  0  0  0  0  0
   62.1307  -15.7910  -12.9828 C   0  0  0  0  0  0  0  0  0  0  0  0
   63.2912  -15.0105  -13.3656 N   0  0  0  0  0  0  0  0  0  0  0  0
   63.9854  -14.6179  -12.1779 C   0  0  0  0  0  0  0  0  0  0  0  0
   63.1522  -13.5918  -11.4323 C   0  0  0  0  0  0  0  0  0  0  0  0
   63.1285  -12.3982  -12.2240 N   0  0  0  0  0  0  0  0  0  0  0  0
   63.3194  -12.5700  -13.6240 C   0  0  0  0  0  0  0  0  0  0  0  0
   62.8230  -13.8909  -14.1505 C   0  0  0  0  0  0  0  0  0  0  0  0
   58.2036   -5.1047   -8.8187 C   0  0  0  0  0  0  0  0  0  0  0  0
   57.3892   -5.0950   -7.7181 C   0  0  0  0  0  0  0  0  0  0  0  0
   56.0624   -4.7287   -7.7903 C   0  0  0  0  0  0  0  0  0  0  0  0
   55.5368   -4.3610   -8.9986 C   0  0  0  0  0  0  0  0  0  0  0  0
   56.3394   -4.3614  -10.1270 C   0  0  0  0  0  0  0  0  0  0  0  0
   57.6504   -4.7247  -10.0505 C   0  0  0  0  0  0  0  0  0  0  0  0
   54.2135   -3.9773   -9.1676 O   0  0  0  0  0  0  0  0  0  0  0  0
   53.1849   -4.4327   -8.3595 C   0  0  0  0  0  0  0  0  0  0  0  0
   52.2796   -3.5174   -7.8192 C   0  0  0  0  0  0  0  0  0  0  0  0
   51.2416   -3.8779   -7.0169 C   0  0  0  0  0  0  0  0  0  0  0  0
   51.1154   -5.2097   -6.7522 N   0  0  0  0  0  0  0  0  0  0  0  0
   51.9649   -6.1205   -7.2527 C   0  0  0  0  0  0  0  0  0  0  0  0
   52.9910   -5.7237   -8.0512 N   0  0  0  0  0  0  0  0  0  0  0  0
   50.2888   -2.9989   -6.4422 N   0  0  0  0  0  0  0  0  0  0  0  0
   50.3427   -1.9554   -6.5785 H   0  0  0  0  0  0  0  0  0  0  0  0
   49.2146   -3.5340   -5.6494 C   0  0  0  0  0  0  0  0  0  0  0  0
   49.2554   -3.6772   -4.1943 C   0  0  0  0  0  0  0  0  0  0  0  0
   48.4986   -2.4809   -4.7442 C   0  0  0  0  0  0  0  0  0  0  0  0
 18 19  1  0  0  0
 19 20  1  0  0  0
 20 21  1  0  0  0
 21 22  1  0  0  0
 22 17  1  0  0  0
 17  7  1  0  0  0
  7  8  2  0  0  0
  8  9  1  0  0  0
  9 10  2  0  0  0
 10  1  1  0  0  0
  1  2  1  0  0  0
  2  3  2  0  0  0
  2  4  1  0  0  0
  4 25  1  0  0  0
 25 26  2  0  0  0
 26 27  1  0  0  0
 27 28  2  0  0  0
 28 31  1  0  0  0
 31 32  1  0  0  0
 32 33  2  0  0  0
 33 34  1  0  0  0
 34 38  1  0  0  0
 38 40  1  0  0  0
 40 41  1  0  0  0
 41 42  1  0  0  0
 34 35  2  0  0  0
 35 36  1  0  0  0
 36 37  2  0  0  0
 28 29  1  0  0  0
 29 30  2  0  0  0
 10 11  1  0  0  0
 11 12  2  0  0  0
 12 13  1  0  0  0
 13 14  1  0  0  0
 13 15  1  0  0  0
 13 16  1  0  0  0
 22 23  1  0  0  0
 23 24  1  0  0  0
 24 19  1  0  0  0
 12  7  1  0  0  0
 30 25  1  0  0  0
 37 32  1  0  0  0
 42 40  1  0  0  0
  1  5  1  0  0  0
  4  6  1  0  0  0
 38 39  1  0  0  0
M  END
> <minimizedAffinity>
-7.48783

> <CNNscore>
0.1868182868

> <CNNaffinity>
5.8032288551

> <CNN_VS>
1.0841492414

> <CNNaffinity_variance>
0.2090736330

$$$$
[H]c1nc([H])c(Cl)c(-c2c([H])c3c([H])nc(N([H])c4c([H])c([H])c(N5C([H])([H])C([H])([H])N(C([H])([H])[H])C([H])([H])C5([H])[H])c([H])c4[H])nc3n(C([H])([H])[H])c2=O)c1Cl


 35 39  0  0  0  0  0  0  0  0999 V2000
   58.5598   -5.4291   -8.9488 C   0  0  0  0  0  0  0  0  0  0  0  0
   58.2334   -5.6054   -7.6737 N   0  0  0  0  0  0  0  0  0  0  0  0
   57.0502   -5.3934   -7.1249 C   0  0  0  0  0  0  0  0  0  0  0  0
   56.0302   -4.9393   -7.9513 C   0  0  0  0  0  0  0  0  0  0  0  0
   54.7672   -4.6948   -7.4536 C   0  0  0  0  0  0  0  0  0  0  0  0
   53.7649   -4.2390   -8.3110 C   0  0  0  0  0  0  0  0  0  0  0  0
   54.1399   -4.0676   -9.6271 C   0  0  0  0  0  0  0  0  0  0  0  0
   53.2329   -3.6524  -10.4176 O   0  0  0  0  0  0  0  0  0  0  0  0
   55.3448   -4.2961  -10.1248 N   0  0  0  0  0  0  0  0  0  0  0  0
   55.6825   -4.0954  -11.5324 C   0  0  0  0  0  0  0  0  0  0  0  0
   56.3247   -4.7412   -9.2889 C   0  0  0  0  0  0  0  0  0  0  0  0
   57.5499   -4.9813   -9.7579 N   0  0  0  0  0  0  0  0  0  0  0  0
   52.4209   -3.9725   -7.8136 C   0  0  0  0  0  0  0  0  0  0  0  0
   51.6499   -4.9679   -7.2517 C   0  0  0  0  0  0  0  0  0  0  0  0
   52.3240   -6.5730   -7.1452 Cl  0  0  0  0  0  0  0  0  0  0  0  0
   50.3753   -4.6782   -6.7900 C   0  0  0  0  0  0  0  0  0  0  0  0
   49.8756   -3.4357   -6.8816 N   0  0  0  0  0  0  0  0  0  0  0  0
   50.5922   -2.4416   -7.4205 C   0  0  0  0  0  0  0  0  0  0  0  0
   51.8640   -2.7132   -7.8853 C   0  0  0  0  0  0  0  0  0  0  0  0
   52.7976   -1.4226   -8.5859 Cl  0  0  0  0  0  0  0  0  0  0  0  0
   59.7924   -5.6385   -9.5746 N   0  0  0  0  0  0  0  0  0  0  0  0
   60.0633   -5.0299  -10.4243 H   0  0  0  0  0  0  0  0  0  0  0  0
   62.6322   -8.5789   -8.4915 C   0  0  0  0  0  0  0  0  0  0  0  0
   61.5436   -8.8561   -9.2990 C   0  0  0  0  0  0  0  0  0  0  0  0
   60.6139   -7.9255   -9.6513 C   0  0  0  0  0  0  0  0  0  0  0  0
   60.7402   -6.5997   -9.1837 C   0  0  0  0  0  0  0  0  0  0  0  0
   61.8097   -6.3207   -8.3896 C   0  0  0  0  0  0  0  0  0  0  0  0
   62.7593   -7.2959   -8.0365 C   0  0  0  0  0  0  0  0  0  0  0  0
   65.0104  -13.4828   -8.0983 C   0  0  0  0  0  0  0  0  0  0  0  0
   64.4470  -12.2056   -8.3115 N   0  0  0  0  0  0  0  0  0  0  0  0
   63.4036  -11.8172   -7.4324 C   0  0  0  0  0  0  0  0  0  0  0  0
   63.5122  -10.3857   -6.9536 C   0  0  0  0  0  0  0  0  0  0  0  0
   63.5732   -9.5690   -8.1430 N   0  0  0  0  0  0  0  0  0  0  0  0
   64.7250   -9.8571   -8.9953 C   0  0  0  0  0  0  0  0  0  0  0  0
   65.3292  -11.1909   -8.7546 C   0  0  0  0  0  0  0  0  0  0  0  0
 29 30  1  0  0  0
 30 31  1  0  0  0
 31 32  1  0  0  0
 32 33  1  0  0  0
 33 34  1  0  0  0
 34 35  1  0  0  0
 33 23  1  0  0  0
 23 24  2  0  0  0
 24 25  1  0  0  0
 25 26  2  0  0  0
 26 21  1  0  0  0
 21  1  1  0  0  0
  1  2  2  0  0  0
  2  3  1  0  0  0
  3  4  2  0  0  0
  4  5  1  0  0  0
  5  6  2  0  0  0
  6 13  1  0  0  0
 13 14  2  0  0  0
 14 15  1  0  0  0
 14 16  1  0  0  0
 16 17  2  0  0  0
 17 18  1  0  0  0
 18 19  2  0  0  0
 19 20  1  0  0  0
  6  7  1  0  0  0
  7  8  2  0  0  0
  7  9  1  0  0  0
  9 10  1  0  0  0
  9 11  1  0  0  0
 11 12  2  0  0  0
 26 27  1  0  0  0
 27 28  2  0  0  0
 35 30  1  0  0  0
 28 23  1  0  0  0
 12  1  1  0  0  0
 11  4  1  0  0  0
 19 13  1  0  0  0
 21 22  1  0  0  0
M  END
> <minimizedAffinity>
-7.78165

> <CNNscore>
0.5753486753

> <CNNaffinity>
6.8643517494

> <CNN_VS>
3.9493956566

> <CNNaffinity_variance>
0.0674241036

$$$$
[H]c1nc([H])c(Cl)c(-c2c([H])c3c([H])nc(N([H])c4c([H])c([H])c(N5C([H])([H])C([H])([H])N(C([H])([H])[H])C([H])([H])C5([H])[H])c([H])c4[H])nc3n(C([H])([H])[H])c2=O)c1Cl


 35 39  0  0  0  0  0  0  0  0999 V2000
   58.5729   -5.4211   -9.0009 C   0  0  0  0  0  0  0  0  0  0  0  0
   58.2508   -5.5906   -7.7238 N   0  0  0  0  0  0  0  0  0  0  0  0
   57.0695   -5.3760   -7.1722 C   0  0  0  0  0  0  0  0  0  0  0  0
   56.0466   -4.9263   -7.9974 C   0  0  0  0  0  0  0  0  0  0  0  0
   54.7852   -4.6794   -7.4967 C   0  0  0  0  0  0  0  0  0  0  0  0
   53.7800   -4.2283   -8.3532 C   0  0  0  0  0  0  0  0  0  0  0  0
   54.1505   -4.0638   -9.6714 C   0  0  0  0  0  0  0  0  0  0  0  0
   53.2407   -3.6529  -10.4610 O   0  0  0  0  0  0  0  0  0  0  0  0
   55.3537   -4.2948  -10.1720 N   0  0  0  0  0  0  0  0  0  0  0  0
   55.6866   -4.1014  -11.5817 C   0  0  0  0  0  0  0  0  0  0  0  0
   56.3365   -4.7353   -9.3371 C   0  0  0  0  0  0  0  0  0  0  0  0
   57.5601   -4.9777   -9.8090 N   0  0  0  0  0  0  0  0  0  0  0  0
   52.4376   -3.9594   -7.8526 C   0  0  0  0  0  0  0  0  0  0  0  0
   51.8845   -2.6980   -7.9149 C   0  0  0  0  0  0  0  0  0  0  0  0
   52.8347   -1.4139   -8.6152 Cl  0  0  0  0  0  0  0  0  0  0  0  0
   50.6052   -2.4788   -7.4280 C   0  0  0  0  0  0  0  0  0  0  0  0
   49.8908   -3.4815   -6.8930 N   0  0  0  0  0  0  0  0  0  0  0  0
   50.3920   -4.7203   -6.8140 C   0  0  0  0  0  0  0  0  0  0  0  0
   51.6651   -4.9559   -7.2946 C   0  0  0  0  0  0  0  0  0  0  0  0
   52.3185   -6.5655   -7.1933 Cl  0  0  0  0  0  0  0  0  0  0  0  0
   59.8034   -5.6335   -9.6299 N   0  0  0  0  0  0  0  0  0  0  0  0
   60.0755   -5.0229  -10.4777 H   0  0  0  0  0  0  0  0  0  0  0  0
   62.6290   -8.5930   -8.5615 C   0  0  0  0  0  0  0  0  0  0  0  0
   61.5130   -8.8713   -9.3303 C   0  0  0  0  0  0  0  0  0  0  0  0
   60.5874   -7.9344   -9.6770 C   0  0  0  0  0  0  0  0  0  0  0  0
   60.7476   -6.6004   -9.2444 C   0  0  0  0  0  0  0  0  0  0  0  0
   61.8442   -6.3203   -8.4885 C   0  0  0  0  0  0  0  0  0  0  0  0
   62.7888   -7.3021   -8.1404 C   0  0  0  0  0  0  0  0  0  0  0  0
   65.2189  -13.4044   -8.5282 C   0  0  0  0  0  0  0  0  0  0  0  0
   64.6167  -12.1317   -8.6358 N   0  0  0  0  0  0  0  0  0  0  0  0
   63.4278  -11.9267   -7.8896 C   0  0  0  0  0  0  0  0  0  0  0  0
   63.3716  -10.5858   -7.1901 C   0  0  0  0  0  0  0  0  0  0  0  0
   63.5647   -9.5897   -8.2176 N   0  0  0  0  0  0  0  0  0  0  0  0
   64.8500   -9.6959   -8.9051 C   0  0  0  0  0  0  0  0  0  0  0  0
   65.4917  -11.0272   -8.7724 C   0  0  0  0  0  0  0  0  0  0  0  0
 29 30  1  0  0  0
 30 31  1  0  0  0
 31 32  1  0  0  0
 32 33  1  0  0  0
 33 34  1  0  0  0
 34 35  1  0  0  0
 33 23  1  0  0  0
 23 24  2  0  0  0
 24 25  1  0  0  0
 25 26  2  0  0  0
 26 21  1  0  0  0
 21  1  1  0  0  0
  1  2  2  0  0  0
  2  3  1  0  0  0
  3  4  2  0  0  0
  4  5  1  0  0  0
  5  6  2  0  0  0
  6 13  1  0  0  0
 13 14  2  0  0  0
 14 15  1  0  0  0
 14 16  1  0  0  0
 16 17  2  0  0  0
 17 18  1  0  0  0
 18 19  2  0  0  0
 19 20  1  0  0  0
  6  7  1  0  0  0
  7  8  2  0  0  0
  7  9  1  0  0  0
  9 10  1  0  0  0
  9 11  1  0  0  0
 11 12  2  0  0  0
 26 27  1  0  0  0
 27 28  2  0  0  0
 35 30  1  0  0  0
 28 23  1  0  0  0
 12  1  1  0  0  0
 11  4  1  0  0  0
 19 13  1  0  0  0
 21 22  1  0  0  0
M  END
> <minimizedAffinity>
-7.74279

> <CNNscore>
0.5636103153

> <CNNaffinity>
6.8531379700

> <CNN_VS>
3.8624992371

> <CNNaffinity_variance>
0.0697632581

$$$$
[H]c1nc([H])c(Cl)c(-c2c([H])c3c([H])nc(N([H])c4c([H])c([H])c(N5C([H])([H])C([H])([H])N(C([H])([H])[H])C([H])([H])C5([H])[H])c([H])c4[H])nc3n(C([H])([H])[H])c2=O)c1Cl


 35 39  0  0  0  0  0  0  0  0999 V2000
   55.3561   -3.9873   -9.5851 C   0  0  0  0  0  0  0  0  0  0  0  0
   54.3312   -3.1431   -9.6050 N   0  0  0  0  0  0  0  0  0  0  0  0
   53.3187   -3.1103   -8.7565 C   0  0  0  0  0  0  0  0  0  0  0  0
   53.3082   -4.0476   -7.7314 C   0  0  0  0  0  0  0  0  0  0  0  0
   52.2860   -4.0779   -6.8057 C   0  0  0  0  0  0  0  0  0  0  0  0
   52.3059   -5.0328   -5.7882 C   0  0  0  0  0  0  0  0  0  0  0  0
   53.3846   -5.8920   -5.7990 C   0  0  0  0  0  0  0  0  0  0  0  0
   53.4123   -6.7667   -4.8749 O   0  0  0  0  0  0  0  0  0  0  0  0
   54.3750   -5.8801   -6.6769 N   0  0  0  0  0  0  0  0  0  0  0  0
   55.4941   -6.8190   -6.6364 C   0  0  0  0  0  0  0  0  0  0  0  0
   54.3572   -4.9483   -7.6712 C   0  0  0  0  0  0  0  0  0  0  0  0
   55.3397   -4.9087   -8.5722 N   0  0  0  0  0  0  0  0  0  0  0  0
   51.2396   -5.0886   -4.7957 C   0  0  0  0  0  0  0  0  0  0  0  0
   51.5141   -5.1671   -3.4468 C   0  0  0  0  0  0  0  0  0  0  0  0
   53.1842   -5.1972   -2.9449 Cl  0  0  0  0  0  0  0  0  0  0  0  0
   50.4745   -5.2196   -2.5313 C   0  0  0  0  0  0  0  0  0  0  0  0
   49.1958   -5.1950   -2.9392 N   0  0  0  0  0  0  0  0  0  0  0  0
   48.8876   -5.1193   -4.2397 C   0  0  0  0  0  0  0  0  0  0  0  0
   49.9114   -5.0661   -5.1650 C   0  0  0  0  0  0  0  0  0  0  0  0
   49.5132   -4.9673   -6.8561 Cl  0  0  0  0  0  0  0  0  0  0  0  0
   56.4467   -4.0618  -10.4568 N   0  0  0  0  0  0  0  0  0  0  0  0
   56.3823   -3.5882  -11.4250 H   0  0  0  0  0  0  0  0  0  0  0  0
   60.0414   -6.0905   -9.5369 C   0  0  0  0  0  0  0  0  0  0  0  0
   59.0940   -5.7810   -8.5774 C   0  0  0  0  0  0  0  0  0  0  0  0
   57.9351   -5.1206   -8.8522 C   0  0  0  0  0  0  0  0  0  0  0  0
   57.6575   -4.7178  -10.1763 C   0  0  0  0  0  0  0  0  0  0  0  0
   58.5855   -5.0203  -11.1247 C   0  0  0  0  0  0  0  0  0  0  0  0
   59.7768   -5.7028  -10.8210 C   0  0  0  0  0  0  0  0  0  0  0  0
   65.0834   -8.1314  -10.0582 C   0  0  0  0  0  0  0  0  0  0  0  0
   63.8328   -7.4969   -9.8924 N   0  0  0  0  0  0  0  0  0  0  0  0
   62.7042   -8.1684  -10.4289 C   0  0  0  0  0  0  0  0  0  0  0  0
   61.4986   -8.1592   -9.5140 C   0  0  0  0  0  0  0  0  0  0  0  0
   61.2330   -6.7716   -9.2153 N   0  0  0  0  0  0  0  0  0  0  0  0
   62.3341   -6.0964   -8.5314 C   0  0  0  0  0  0  0  0  0  0  0  0
   63.6434   -6.7766   -8.6885 C   0  0  0  0  0  0  0  0  0  0  0  0
 29 30  1  0  0  0
 30 31  1  0  0  0
 31 32  1  0  0  0
 32 33  1  0  0  0
 33 34  1  0  0  0
 34 35  1  0  0  0
 33 23  1  0  0  0
 23 24  2  0  0  0
 24 25  1  0  0  0
 25 26  2  0  0  0
 26 21  1  0  0  0
 21  1  1  0  0  0
  1  2  2  0  0  0
  2  3  1  0  0  0
  3  4  2  0  0  0
  4  5  1  0  0  0
  5  6  2  0  0  0
  6 13  1  0  0  0
 13 14  2  0  0  0
 14 15  1  0  0  0
 14 16  1  0  0  0
 16 17  2  0  0  0
 17 18  1  0  0  0
 18 19  2  0  0  0
 19 20  1  0  0  0
  6  7  1  0  0  0
  7  8  2  0  0  0
  7  9  1  0  0  0
  9 10  1  0  0  0
  9 11  1  0  0  0
 11 12  2  0  0  0
 26 27  1  0  0  0
 27 28  2  0  0  0
 35 30  1  0  0  0
 28 23  1  0  0  0
 12  1  1  0  0  0
 11  4  1  0  0  0
 19 13  1  0  0  0
 21 22  1  0  0  0
M  END
> <minimizedAffinity>
-7.33247

> <CNNscore>
0.4898687601

> <CNNaffinity>
7.4663085938

> <CNN_VS>
3.6575112343

> <CNNaffinity_variance>
0.5637710094

$$$$
[H]c1nc([H])c(Cl)c(-c2c([H])c3c([H])nc(N([H])c4c([H])c([H])c(N5C([H])([H])C([H])([H])N(C([H])([H])[H])C([H])([H])C5([H])[H])c([H])c4[H])nc3n(C([H])([H])[H])c2=O)c1Cl


 35 39  0  0  0  0  0  0  0  0999 V2000
   55.5174   -4.3395   -9.8861 C   0  0  0  0  0  0  0  0  0  0  0  0
   54.3178   -3.9391  -10.2914 N   0  0  0  0  0  0  0  0  0  0  0  0
   53.2134   -3.8962   -9.5674 C   0  0  0  0  0  0  0  0  0  0  0  0
   53.2960   -4.3086   -8.2435 C   0  0  0  0  0  0  0  0  0  0  0  0
   52.1872   -4.2931   -7.4231 C   0  0  0  0  0  0  0  0  0  0  0  0
   52.3046   -4.7140   -6.0978 C   0  0  0  0  0  0  0  0  0  0  0  0
   53.5642   -5.1226   -5.7123 C   0  0  0  0  0  0  0  0  0  0  0  0
   53.6820   -5.5083   -4.5051 O   0  0  0  0  0  0  0  0  0  0  0  0
   54.6402   -5.1452   -6.4826 N   0  0  0  0  0  0  0  0  0  0  0  0
   55.9516   -5.5900   -6.0157 C   0  0  0  0  0  0  0  0  0  0  0  0
   54.5273   -4.7345   -7.7771 C   0  0  0  0  0  0  0  0  0  0  0  0
   55.5920   -4.7447   -8.5802 N   0  0  0  0  0  0  0  0  0  0  0  0
   51.1503   -4.7083   -5.2075 C   0  0  0  0  0  0  0  0  0  0  0  0
   50.1504   -3.7669   -5.3300 C   0  0  0  0  0  0  0  0  0  0  0  0
   50.2952   -2.5683   -6.5888 Cl  0  0  0  0  0  0  0  0  0  0  0  0
   49.0676   -3.7913   -4.4648 C   0  0  0  0  0  0  0  0  0  0  0  0
   48.9758   -4.7229   -3.5026 N   0  0  0  0  0  0  0  0  0  0  0  0
   49.9255   -5.6541   -3.3508 C   0  0  0  0  0  0  0  0  0  0  0  0
   51.0110   -5.6441   -4.2046 C   0  0  0  0  0  0  0  0  0  0  0  0
   52.2466   -6.8537   -4.0093 Cl  0  0  0  0  0  0  0  0  0  0  0  0
   56.7111   -4.4031  -10.6113 N   0  0  0  0  0  0  0  0  0  0  0  0
   56.7386   -4.0145  -11.6182 H   0  0  0  0  0  0  0  0  0  0  0  0
   60.2834   -6.0807   -9.0921 C   0  0  0  0  0  0  0  0  0  0  0  0
   59.2091   -5.7571   -8.2827 C   0  0  0  0  0  0  0  0  0  0  0  0
   58.0544   -5.2080   -8.7516 C   0  0  0  0  0  0  0  0  0  0  0  0
   57.9163   -4.9435  -10.1312 C   0  0  0  0  0  0  0  0  0  0  0  0
   58.9696   -5.2605  -10.9326 C   0  0  0  0  0  0  0  0  0  0  0  0
   60.1543   -5.8267  -10.4293 C   0  0  0  0  0  0  0  0  0  0  0  0
   64.9017   -6.5556   -6.2104 C   0  0  0  0  0  0  0  0  0  0  0  0
   63.6475   -6.4649   -6.8529 N   0  0  0  0  0  0  0  0  0  0  0  0
   63.6212   -5.7934   -8.1022 C   0  0  0  0  0  0  0  0  0  0  0  0
   62.7800   -6.4896   -9.1500 C   0  0  0  0  0  0  0  0  0  0  0  0
   61.4661   -6.6439   -8.5713 N   0  0  0  0  0  0  0  0  0  0  0  0
   61.4508   -7.4556   -7.3559 C   0  0  0  0  0  0  0  0  0  0  0  0
   62.7742   -7.5678   -6.6943 C   0  0  0  0  0  0  0  0  0  0  0  0
 29 30  1  0  0  0
 30 31  1  0  0  0
 31 32  1  0  0  0
 32 33  1  0  0  0
 33 34  1  0  0  0
 34 35  1  0  0  0
 33 23  1  0  0  0
 23 24  2  0  0  0
 24 25  1  0  0  0
 25 26  2  0  0  0
 26 21  1  0  0  0
 21  1  1  0  0  0
  1  2  2  0  0  0
  2  3  1  0  0  0
  3  4  2  0  0  0
  4  5  1  0  0  0
  5  6  2  0  0  0
  6 13  1  0  0  0
 13 14  2  0  0  0
 14 15  1  0  0  0
 14 16  1  0  0  0
 16 17  2  0  0  0
 17 18  1  0  0  0
 18 19  2  0  0  0
 19 20  1  0  0  0
  6  7  1  0  0  0
  7  8  2  0  0  0
  7  9  1  0  0  0
  9 10  1  0  0  0
  9 11  1  0  0  0
 11 12  2  0  0  0
 26 27  1  0  0  0
 27 28  2  0  0  0
 35 30  1  0  0  0
 28 23  1  0  0  0
 12  1  1  0  0  0
 11  4  1  0  0  0
 19 13  1  0  0  0
 21 22  1  0  0  0
M  END
> <minimizedAffinity>
-8.77852

> <CNNscore>
0.4435329437

> <CNNaffinity>
7.4631624222

> <CNN_VS>
3.3101584911

> <CNNaffinity_variance>
0.3244176507

$$$$
[H]c1nc([H])c(Cl)c(-c2c([H])c3c([H])nc(N([H])c4c([H])c([H])c(N5C([H])([H])C([H])([H])N(C([H])([H])[H])C([H])([H])C5([H])[H])c([H])c4[H])nc3n(C([H])([H])[H])c2=O)c1Cl


 35 39  0  0  0  0  0  0  0  0999 V2000
   58.7479   -5.3440  -10.1786 C   0  0  0  0  0  0  0  0  0  0  0  0
   57.9437   -4.8795  -11.1278 N   0  0  0  0  0  0  0  0  0  0  0  0
   56.6779   -4.5273  -10.9877 C   0  0  0  0  0  0  0  0  0  0  0  0
   56.1128   -4.6485   -9.7245 C   0  0  0  0  0  0  0  0  0  0  0  0
   54.7973   -4.3013   -9.4975 C   0  0  0  0  0  0  0  0  0  0  0  0
   54.2605   -4.4353   -8.2163 C   0  0  0  0  0  0  0  0  0  0  0  0
   55.1241   -4.9203   -7.2567 C   0  0  0  0  0  0  0  0  0  0  0  0
   54.6443   -5.0461   -6.0846 O   0  0  0  0  0  0  0  0  0  0  0  0
   56.3884   -5.2590   -7.4531 N   0  0  0  0  0  0  0  0  0  0  0  0
   57.2563   -5.7684   -6.3935 C   0  0  0  0  0  0  0  0  0  0  0  0
   56.9142   -5.1288   -8.7036 C   0  0  0  0  0  0  0  0  0  0  0  0
   58.1848   -5.4611   -8.9359 N   0  0  0  0  0  0  0  0  0  0  0  0
   52.8738   -4.0759   -7.9465 C   0  0  0  0  0  0  0  0  0  0  0  0
   51.9609   -5.0088   -7.5022 C   0  0  0  0  0  0  0  0  0  0  0  0
   52.5058   -6.6486   -7.2649 Cl  0  0  0  0  0  0  0  0  0  0  0  0
   50.6498   -4.6313   -7.2567 C   0  0  0  0  0  0  0  0  0  0  0  0
   50.2513   -3.3634   -7.4459 N   0  0  0  0  0  0  0  0  0  0  0  0
   51.1069   -2.4281   -7.8763 C   0  0  0  0  0  0  0  0  0  0  0  0
   52.4168   -2.7874   -8.1255 C   0  0  0  0  0  0  0  0  0  0  0  0
   53.5308   -1.5731   -8.6847 Cl  0  0  0  0  0  0  0  0  0  0  0  0
   60.0885   -5.7287  -10.2770 N   0  0  0  0  0  0  0  0  0  0  0  0
   60.7317   -5.2260  -10.9837 H   0  0  0  0  0  0  0  0  0  0  0  0
   61.8890   -8.7214   -7.8925 C   0  0  0  0  0  0  0  0  0  0  0  0
   61.9666   -7.3752   -7.5830 C   0  0  0  0  0  0  0  0  0  0  0  0
   61.4016   -6.3964   -8.3428 C   0  0  0  0  0  0  0  0  0  0  0  0
   60.6928   -6.7421   -9.5135 C   0  0  0  0  0  0  0  0  0  0  0  0
   60.6124   -8.0650   -9.8226 C   0  0  0  0  0  0  0  0  0  0  0  0
   61.2032   -9.0613   -9.0253 C   0  0  0  0  0  0  0  0  0  0  0  0
   63.9534  -11.1651   -3.4625 C   0  0  0  0  0  0  0  0  0  0  0  0
   63.3086  -10.5691   -4.5684 N   0  0  0  0  0  0  0  0  0  0  0  0
   64.0755   -9.6518   -5.3318 C   0  0  0  0  0  0  0  0  0  0  0  0
   63.9075   -9.8142   -6.8270 C   0  0  0  0  0  0  0  0  0  0  0  0
   62.4906   -9.7078   -7.0848 N   0  0  0  0  0  0  0  0  0  0  0  0
   61.6931  -10.7354   -6.4184 C   0  0  0  0  0  0  0  0  0  0  0  0
   62.3809  -11.3759   -5.2701 C   0  0  0  0  0  0  0  0  0  0  0  0
 29 30  1  0  0  0
 30 31  1  0  0  0
 31 32  1  0  0  0
 32 33  1  0  0  0
 33 34  1  0  0  0
 34 35  1  0  0  0
 33 23  1  0  0  0
 23 24  2  0  0  0
 24 25  1  0  0  0
 25 26  2  0  0  0
 26 21  1  0  0  0
 21  1  1  0  0  0
  1  2  2  0  0  0
  2  3  1  0  0  0
  3  4  2  0  0  0
  4  5  1  0  0  0
  5  6  2  0  0  0
  6 13  1  0  0  0
 13 14  2  0  0  0
 14 15  1  0  0  0
 14 16  1  0  0  0
 16 17  2  0  0  0
 17 18  1  0  0  0
 18 19  2  0  0  0
 19 20  1  0  0  0
  6  7  1  0  0  0
  7  8  2  0  0  0
  7  9  1  0  0  0
  9 10  1  0  0  0
  9 11  1  0  0  0
 11 12  2  0  0  0
 26 27  1  0  0  0
 27 28  2  0  0  0
 35 30  1  0  0  0
 28 23  1  0  0  0
 12  1  1  0  0  0
 11  4  1  0  0  0
 19 13  1  0  0  0
 21 22  1  0  0  0
M  END
> <minimizedAffinity>
-7.26041

> <CNNscore>
0.3450638056

> <CNNaffinity>
6.6733641624

> <CNN_VS>
2.3027365208

> <CNNaffinity_variance>
0.1768679321

$$$$
[H]c1nc([H])c(Cl)c(-c2c([H])c3c([H])nc(N([H])c4c([H])c([H])c(N5C([H])([H])C([H])([H])N(C([H])([H])[H])C([H])([H])C5([H])[H])c([H])c4[H])nc3n(C([H])([H])[H])c2=O)c1Cl


 35 39  0  0  0  0  0  0  0  0999 V2000
   56.0168   -4.0680  -10.9123 C   0  0  0  0  0  0  0  0  0  0  0  0
   56.8578   -4.8202  -10.2120 N   0  0  0  0  0  0  0  0  0  0  0  0
   56.6698   -5.2870   -8.9903 C   0  0  0  0  0  0  0  0  0  0  0  0
   55.4752   -4.9685   -8.3570 C   0  0  0  0  0  0  0  0  0  0  0  0
   55.2045   -5.4180   -7.0813 C   0  0  0  0  0  0  0  0  0  0  0  0
   53.9946   -5.0797   -6.4738 C   0  0  0  0  0  0  0  0  0  0  0  0
   53.1466   -4.2981   -7.2302 C   0  0  0  0  0  0  0  0  0  0  0  0
   52.0401   -3.9841   -6.6852 O   0  0  0  0  0  0  0  0  0  0  0  0
   53.3867   -3.8566   -8.4546 N   0  0  0  0  0  0  0  0  0  0  0  0
   52.4464   -3.0294   -9.2077 C   0  0  0  0  0  0  0  0  0  0  0  0
   54.5677   -4.1860   -9.0493 C   0  0  0  0  0  0  0  0  0  0  0  0
   54.8412   -3.7576  -10.2824 N   0  0  0  0  0  0  0  0  0  0  0  0
   53.6809   -5.5406   -5.1269 C   0  0  0  0  0  0  0  0  0  0  0  0
   52.5210   -6.2344   -4.8545 C   0  0  0  0  0  0  0  0  0  0  0  0
   51.4228   -6.5554   -6.1710 Cl  0  0  0  0  0  0  0  0  0  0  0  0
   52.2549   -6.6565   -3.5611 C   0  0  0  0  0  0  0  0  0  0  0  0
   53.1139   -6.3989   -2.5623 N   0  0  0  0  0  0  0  0  0  0  0  0
   54.2508   -5.7282   -2.7854 C   0  0  0  0  0  0  0  0  0  0  0  0
   54.5312   -5.3007   -4.0684 C   0  0  0  0  0  0  0  0  0  0  0  0
   56.0085   -4.4288   -4.3609 Cl  0  0  0  0  0  0  0  0  0  0  0  0
   56.1696   -3.5516  -12.2026 N   0  0  0  0  0  0  0  0  0  0  0  0
   55.3238   -3.0910  -12.6907 H   0  0  0  0  0  0  0  0  0  0  0  0
   59.7183   -3.5660  -14.5027 C   0  0  0  0  0  0  0  0  0  0  0  0
   58.4624   -3.4491  -15.0711 C   0  0  0  0  0  0  0  0  0  0  0  0
   57.3081   -3.4516  -14.3485 C   0  0  0  0  0  0  0  0  0  0  0  0
   57.3634   -3.5784  -12.9437 C   0  0  0  0  0  0  0  0  0  0  0  0
   58.5962   -3.6928  -12.3788 C   0  0  0  0  0  0  0  0  0  0  0  0
   59.7771   -3.6886  -13.1423 C   0  0  0  0  0  0  0  0  0  0  0  0
   63.5766   -1.8292  -17.9603 C   0  0  0  0  0  0  0  0  0  0  0  0
   62.6376   -2.2145  -16.9787 N   0  0  0  0  0  0  0  0  0  0  0  0
   61.4238   -2.7791  -17.4482 C   0  0  0  0  0  0  0  0  0  0  0  0
   60.9706   -3.9893  -16.6605 C   0  0  0  0  0  0  0  0  0  0  0  0
   60.8925   -3.5643  -15.2826 N   0  0  0  0  0  0  0  0  0  0  0  0
   62.1691   -3.1108  -14.7343 C   0  0  0  0  0  0  0  0  0  0  0  0
   63.1622   -2.7272  -15.7679 C   0  0  0  0  0  0  0  0  0  0  0  0
 29 30  1  0  0  0
 30 31  1  0  0  0
 31 32  1  0  0  0
 32 33  1  0  0  0
 33 34  1  0  0  0
 34 35  1  0  0  0
 33 23  1  0  0  0
 23 24  2  0  0  0
 24 25  1  0  0  0
 25 26  2  0  0  0
 26 21  1  0  0  0
 21  1  1  0  0  0
  1  2  2  0  0  0
  2  3  1  0  0  0
  3  4  2  0  0  0
  4  5  1  0  0  0
  5  6  2  0  0  0
  6 13  1  0  0  0
 13 14  2  0  0  0
 14 15  1  0  0  0
 14 16  1  0  0  0
 16 17  2  0  0  0
 17 18  1  0  0  0
 18 19  2  0  0  0
 19 20  1  0  0  0
  6  7  1  0  0  0
  7  8  2  0  0  0
  7  9  1  0  0  0
  9 10  1  0  0  0
  9 11  1  0  0  0
 11 12  2  0  0  0
 26 27  1  0  0  0
 27 28  2  0  0  0
 35 30  1  0  0  0
 28 23  1  0  0  0
 12  1  1  0  0  0
 11  4  1  0  0  0
 19 13  1  0  0  0
 21 22  1  0  0  0
M  END
> <minimizedAffinity>
-8.10203

> <CNNscore>
0.3275333047

> <CNNaffinity>
7.0105805397

> <CNN_VS>
2.2961986065

> <CNNaffinity_variance>
0.3360541463

$$$$
[H]c1nc([H])c(Cl)c(-c2c([H])c3c([H])nc(N([H])c4c([H])c([H])c(N5C([H])([H])C([H])([H])N(C([H])([H])[H])C([H])([H])C5([H])[H])c([H])c4[H])nc3n(C([H])([H])[H])c2=O)c1Cl


 35 39  0  0  0  0  0  0  0  0999 V2000
   55.6791   -4.0729  -10.6038 C   0  0  0  0  0  0  0  0  0  0  0  0
   56.5163   -4.8464   -9.9225 N   0  0  0  0  0  0  0  0  0  0  0  0
   56.3313   -5.3321   -8.7077 C   0  0  0  0  0  0  0  0  0  0  0  0
   55.1447   -5.0115   -8.0607 C   0  0  0  0  0  0  0  0  0  0  0  0
   54.8775   -5.4800   -6.7912 C   0  0  0  0  0  0  0  0  0  0  0  0
   53.6755   -5.1390   -6.1695 C   0  0  0  0  0  0  0  0  0  0  0  0
   52.8313   -4.3350   -6.9065 C   0  0  0  0  0  0  0  0  0  0  0  0
   51.7321   -4.0184   -6.3485 O   0  0  0  0  0  0  0  0  0  0  0  0
   53.0681   -3.8751   -8.1247 N   0  0  0  0  0  0  0  0  0  0  0  0
   52.1320   -3.0246   -8.8569 C   0  0  0  0  0  0  0  0  0  0  0  0
   54.2413   -4.2071   -8.7332 C   0  0  0  0  0  0  0  0  0  0  0  0
   54.5113   -3.7605   -9.9605 N   0  0  0  0  0  0  0  0  0  0  0  0
   53.3657   -5.6196   -4.8287 C   0  0  0  0  0  0  0  0  0  0  0  0
   54.2459   -5.4499   -3.7811 C   0  0  0  0  0  0  0  0  0  0  0  0
   55.7565   -4.6368   -4.0958 Cl  0  0  0  0  0  0  0  0  0  0  0  0
   53.9184   -5.9210   -2.5191 C   0  0  0  0  0  0  0  0  0  0  0  0
   52.7500   -6.5441   -2.2985 N   0  0  0  0  0  0  0  0  0  0  0  0
   51.8685   -6.7286   -3.2890 C   0  0  0  0  0  0  0  0  0  0  0  0
   52.1792   -6.2652   -4.5523 C   0  0  0  0  0  0  0  0  0  0  0  0
   51.0347   -6.5036   -5.8413 Cl  0  0  0  0  0  0  0  0  0  0  0  0
   55.8290   -3.5359  -11.8860 N   0  0  0  0  0  0  0  0  0  0  0  0
   54.9875   -3.0502  -12.3568 H   0  0  0  0  0  0  0  0  0  0  0  0
   59.3512   -3.5818  -14.2262 C   0  0  0  0  0  0  0  0  0  0  0  0
   58.0874   -3.5018  -14.7833 C   0  0  0  0  0  0  0  0  0  0  0  0
   56.9415   -3.4949  -14.0475 C   0  0  0  0  0  0  0  0  0  0  0  0
   57.0145   -3.5721  -12.6399 C   0  0  0  0  0  0  0  0  0  0  0  0
   58.2552   -3.6501  -12.0860 C   0  0  0  0  0  0  0  0  0  0  0  0
   59.4271   -3.6563  -12.8631 C   0  0  0  0  0  0  0  0  0  0  0  0
   63.6705   -5.4938  -16.9731 C   0  0  0  0  0  0  0  0  0  0  0  0
   62.4862   -5.0266  -16.3623 N   0  0  0  0  0  0  0  0  0  0  0  0
   62.5335   -4.8224  -14.9592 C   0  0  0  0  0  0  0  0  0  0  0  0
   61.8657   -3.5416  -14.5076 C   0  0  0  0  0  0  0  0  0  0  0  0
   60.5163   -3.5912  -15.0195 N   0  0  0  0  0  0  0  0  0  0  0  0
   60.4430   -3.6584  -16.4777 C   0  0  0  0  0  0  0  0  0  0  0  0
   61.6957   -4.1286  -17.1191 C   0  0  0  0  0  0  0  0  0  0  0  0
 29 30  1  0  0  0
 30 31  1  0  0  0
 31 32  1  0  0  0
 32 33  1  0  0  0
 33 34  1  0  0  0
 34 35  1  0  0  0
 33 23  1  0  0  0
 23 24  2  0  0  0
 24 25  1  0  0  0
 25 26  2  0  0  0
 26 21  1  0  0  0
 21  1  1  0  0  0
  1  2  2  0  0  0
  2  3  1  0  0  0
  3  4  2  0  0  0
  4  5  1  0  0  0
  5  6  2  0  0  0
  6 13  1  0  0  0
 13 14  2  0  0  0
 14 15  1  0  0  0
 14 16  1  0  0  0
 16 17  2  0  0  0
 17 18  1  0  0  0
 18 19  2  0  0  0
 19 20  1  0  0  0
  6  7  1  0  0  0
  7  8  2  0  0  0
  7  9  1  0  0  0
  9 10  1  0  0  0
  9 11  1  0  0  0
 11 12  2  0  0  0
 26 27  1  0  0  0
 27 28  2  0  0  0
 35 30  1  0  0  0
 28 23  1  0  0  0
 12  1  1  0  0  0
 11  4  1  0  0  0
 19 13  1  0  0  0
 21 22  1  0  0  0
M  END
> <minimizedAffinity>
-8.07823

> <CNNscore>
0.3246845901

> <CNNaffinity>
7.0367021561

> <CNN_VS>
2.2847087383

> <CNNaffinity_variance>
0.4029833376

$$$$
[H]c1nc([H])c(Cl)c(-c2c([H])c3c([H])nc(N([H])c4c([H])c([H])c(N5C([H])([H])C([H])([H])N(C([H])([H])[H])C([H])([H])C5([H])[H])c([H])c4[H])nc3n(C([H])([H])[H])c2=O)c1Cl


 35 39  0  0  0  0  0  0  0  0999 V2000
   54.8226   -3.7720   -9.7220 C   0  0  0  0  0  0  0  0  0  0  0  0
   54.4653   -2.5588   -9.3171 N   0  0  0  0  0  0  0  0  0  0  0  0
   53.5019   -2.2635   -8.4624 C   0  0  0  0  0  0  0  0  0  0  0  0
   52.7770   -3.3176   -7.9212 C   0  0  0  0  0  0  0  0  0  0  0  0
   51.7559   -3.0911   -7.0219 C   0  0  0  0  0  0  0  0  0  0  0  0
   51.0473   -4.1727   -6.4970 C   0  0  0  0  0  0  0  0  0  0  0  0
   51.4456   -5.4166   -6.9398 C   0  0  0  0  0  0  0  0  0  0  0  0
   50.8058   -6.4100   -6.4668 O   0  0  0  0  0  0  0  0  0  0  0  0
   52.4217   -5.6558   -7.8011 N   0  0  0  0  0  0  0  0  0  0  0  0
   52.7986   -6.9999   -8.2333 C   0  0  0  0  0  0  0  0  0  0  0  0
   53.1146   -4.6007   -8.3147 C   0  0  0  0  0  0  0  0  0  0  0  0
   54.1041   -4.8066   -9.1848 N   0  0  0  0  0  0  0  0  0  0  0  0
   49.9636   -3.9640   -5.5447 C   0  0  0  0  0  0  0  0  0  0  0  0
   48.8833   -3.1623   -5.8468 C   0  0  0  0  0  0  0  0  0  0  0  0
   48.8378   -2.3940   -7.4120 Cl  0  0  0  0  0  0  0  0  0  0  0  0
   47.8712   -2.9857   -4.9160 C   0  0  0  0  0  0  0  0  0  0  0  0
   47.9260   -3.5866   -3.7169 N   0  0  0  0  0  0  0  0  0  0  0  0
   48.9576   -4.3726   -3.3852 C   0  0  0  0  0  0  0  0  0  0  0  0
   49.9743   -4.5592   -4.3011 C   0  0  0  0  0  0  0  0  0  0  0  0
   51.3163   -5.5807   -3.8724 Cl  0  0  0  0  0  0  0  0  0  0  0  0
   55.8306   -4.1342  -10.6207 N   0  0  0  0  0  0  0  0  0  0  0  0
   55.6748   -3.9824  -11.6782 H   0  0  0  0  0  0  0  0  0  0  0  0
   59.5991   -5.7642   -9.6082 C   0  0  0  0  0  0  0  0  0  0  0  0
   59.2592   -5.4224  -10.9050 C   0  0  0  0  0  0  0  0  0  0  0  0
   58.0482   -4.9051  -11.2522 C   0  0  0  0  0  0  0  0  0  0  0  0
   57.0675   -4.6948  -10.2590 C   0  0  0  0  0  0  0  0  0  0  0  0
   57.3965   -5.0284   -8.9812 C   0  0  0  0  0  0  0  0  0  0  0  0
   58.6526   -5.5620   -8.6426 C   0  0  0  0  0  0  0  0  0  0  0  0
   63.5710   -9.4451   -8.8781 C   0  0  0  0  0  0  0  0  0  0  0  0
   62.5753   -8.4924   -9.1861 N   0  0  0  0  0  0  0  0  0  0  0  0
   61.5756   -8.2785   -8.2026 C   0  0  0  0  0  0  0  0  0  0  0  0
   61.2332   -6.8197   -7.9898 C   0  0  0  0  0  0  0  0  0  0  0  0
   60.8615   -6.3023   -9.2857 N   0  0  0  0  0  0  0  0  0  0  0  0
   61.9301   -6.3834  -10.2795 C   0  0  0  0  0  0  0  0  0  0  0  0
   62.9868   -7.3693   -9.9433 C   0  0  0  0  0  0  0  0  0  0  0  0
 29 30  1  0  0  0
 30 31  1  0  0  0
 31 32  1  0  0  0
 32 33  1  0  0  0
 33 34  1  0  0  0
 34 35  1  0  0  0
 33 23  1  0  0  0
 23 24  2  0  0  0
 24 25  1  0  0  0
 25 26  2  0  0  0
 26 21  1  0  0  0
 21  1  1  0  0  0
  1  2  2  0  0  0
  2  3  1  0  0  0
  3  4  2  0  0  0
  4  5  1  0  0  0
  5  6  2  0  0  0
  6 13  1  0  0  0
 13 14  2  0  0  0
 14 15  1  0  0  0
 14 16  1  0  0  0
 16 17  2  0  0  0
 17 18  1  0  0  0
 18 19  2  0  0  0
 19 20  1  0  0  0
  6  7  1  0  0  0
  7  8  2  0  0  0
  7  9  1  0  0  0
  9 10  1  0  0  0
  9 11  1  0  0  0
 11 12  2  0  0  0
 26 27  1  0  0  0
 27 28  2  0  0  0
 35 30  1  0  0  0
 28 23  1  0  0  0
 12  1  1  0  0  0
 11  4  1  0  0  0
 19 13  1  0  0  0
 21 22  1  0  0  0
M  END
> <minimizedAffinity>
-7.38041

> <CNNscore>
0.3059501648

> <CNNaffinity>
7.0411543846

> <CNN_VS>
2.1542422771

> <CNNaffinity_variance>
0.1014257297

$$$$
[H]c1nc([H])c(Cl)c(-c2c([H])c3c([H])nc(N([H])c4c([H])c([H])c(N5C([H])([H])C([H])([H])N(C([H])([H])[H])C([H])([H])C5([H])[H])c([H])c4[H])nc3n(C([H])([H])[H])c2=O)c1Cl


 35 39  0  0  0  0  0  0  0  0999 V2000
   59.2846   -5.6524   -9.0443 C   0  0  0  0  0  0  0  0  0  0  0  0
   58.6498   -5.2450  -10.1373 N   0  0  0  0  0  0  0  0  0  0  0  0
   57.3842   -4.8753  -10.2239 C   0  0  0  0  0  0  0  0  0  0  0  0
   56.6234   -4.9097   -9.0622 C   0  0  0  0  0  0  0  0  0  0  0  0
   55.2948   -4.5389   -9.0709 C   0  0  0  0  0  0  0  0  0  0  0  0
   54.5588   -4.5851   -7.8861 C   0  0  0  0  0  0  0  0  0  0  0  0
   55.2502   -5.0126   -6.7720 C   0  0  0  0  0  0  0  0  0  0  0  0
   54.5879   -5.0581   -5.6861 O   0  0  0  0  0  0  0  0  0  0  0  0
   56.5235   -5.3726   -6.7420 N   0  0  0  0  0  0  0  0  0  0  0  0
   57.2027   -5.8179   -5.5271 C   0  0  0  0  0  0  0  0  0  0  0  0
   57.2437   -5.3281   -7.8980 C   0  0  0  0  0  0  0  0  0  0  0  0
   58.5290   -5.6840   -7.9027 N   0  0  0  0  0  0  0  0  0  0  0  0
   53.1534   -4.1988   -7.8647 C   0  0  0  0  0  0  0  0  0  0  0  0
   52.7520   -2.9213   -8.1931 C   0  0  0  0  0  0  0  0  0  0  0  0
   53.9752   -1.7618   -8.6421 Cl  0  0  0  0  0  0  0  0  0  0  0  0
   51.4065   -2.5891   -8.1608 C   0  0  0  0  0  0  0  0  0  0  0  0
   50.4812   -3.4971   -7.8124 N   0  0  0  0  0  0  0  0  0  0  0  0
   50.8300   -4.7478   -7.4866 C   0  0  0  0  0  0  0  0  0  0  0  0
   52.1664   -5.0953   -7.5139 C   0  0  0  0  0  0  0  0  0  0  0  0
   52.6221   -6.7207   -7.0911 Cl  0  0  0  0  0  0  0  0  0  0  0  0
   60.6168   -6.0523   -8.9026 N   0  0  0  0  0  0  0  0  0  0  0  0
   61.2963   -5.4340   -8.3354 H   0  0  0  0  0  0  0  0  0  0  0  0
   62.3558   -9.5228  -10.5806 C   0  0  0  0  0  0  0  0  0  0  0  0
   62.4950   -8.2697  -11.1501 C   0  0  0  0  0  0  0  0  0  0  0  0
   61.9354   -7.1423  -10.6301 C   0  0  0  0  0  0  0  0  0  0  0  0
   61.1674   -7.2244   -9.4486 C   0  0  0  0  0  0  0  0  0  0  0  0
   61.0276   -8.4545   -8.8833 C   0  0  0  0  0  0  0  0  0  0  0  0
   61.6131   -9.6074   -9.4358 C   0  0  0  0  0  0  0  0  0  0  0  0
   63.0630  -13.8369  -13.8588 C   0  0  0  0  0  0  0  0  0  0  0  0
   62.9274  -12.6526  -13.1018 N   0  0  0  0  0  0  0  0  0  0  0  0
   62.0976  -12.7247  -11.9534 C   0  0  0  0  0  0  0  0  0  0  0  0
   62.6751  -12.0280  -10.7404 C   0  0  0  0  0  0  0  0  0  0  0  0
   62.9457  -10.6698  -11.1494 N   0  0  0  0  0  0  0  0  0  0  0  0
   63.9111  -10.5662  -12.2418 C   0  0  0  0  0  0  0  0  0  0  0  0
   64.0683  -11.8183  -13.0225 C   0  0  0  0  0  0  0  0  0  0  0  0
 29 30  1  0  0  0
 30 31  1  0  0  0
 31 32  1  0  0  0
 32 33  1  0  0  0
 33 34  1  0  0  0
 34 35  1  0  0  0
 33 23  1  0  0  0
 23 24  2  0  0  0
 24 25  1  0  0  0
 25 26  2  0  0  0
 26 21  1  0  0  0
 21  1  1  0  0  0
  1  2  2  0  0  0
  2  3  1  0  0  0
  3  4  2  0  0  0
  4  5  1  0  0  0
  5  6  2  0  0  0
  6 13  1  0  0  0
 13 14  2  0  0  0
 14 15  1  0  0  0
 14 16  1  0  0  0
 16 17  2  0  0  0
 17 18  1  0  0  0
 18 19  2  0  0  0
 19 20  1  0  0  0
  6  7  1  0  0  0
  7  8  2  0  0  0
  7  9  1  0  0  0
  9 10  1  0  0  0
  9 11  1  0  0  0
 11 12  2  0  0  0
 26 27  1  0  0  0
 27 28  2  0  0  0
 35 30  1  0  0  0
 28 23  1  0  0  0
 12  1  1  0  0  0
 11  4  1  0  0  0
 19 13  1  0  0  0
 21 22  1  0  0  0
M  END
> <minimizedAffinity>
-6.87615

> <CNNscore>
0.2955306768

> <CNNaffinity>
6.4261298180

> <CNN_VS>
1.8991185427

> <CNNaffinity_variance>
0.1141226664

$$$$
[H]OC(=O)C([H])([H])[C@@]([H])(C(=O)O[H])N([H])C(=O)[C@@]([H])(N([H])C(=O)[C@@]([H])(N([H])C(=O)[C@@]1([H])N(C(=O)[C@@]([H])(N([H])[H])C([H])([H])c2c([H])c([H])c([H])c([H])c2[H])C([H])([H])C([H])([H])C1([H])[H])C([H])([H])c1c([H])c([H])c([H])c([H])c1[H])C([H])(C([H])([H])[H])C([H])([H])[H]


 52 54  0  0  0  0  0  0  0  0999 V2000
   55.2529   -4.3128   -9.1713 C   0  0  0  0  0  0  0  0  0  0  0  0
   56.0025   -3.8739  -11.6244 N   0  0  0  0  0  0  0  0  0  0  0  0
   55.9725   -4.4956  -10.3934 C   0  0  0  0  0  0  0  0  0  0  0  0
   56.8319   -5.5154  -10.3230 O   0  0  0  0  0  0  0  0  0  0  0  0
   55.4466   -3.0384  -11.8518 H   0  0  0  0  0  0  0  0  0  0  0  0
   56.8678   -4.3195  -12.7362 C   0  0  0  0  0  0  0  0  0  0  0  0
   58.2128   -3.7656  -12.6002 C   0  0  0  0  0  0  0  0  0  0  0  0
   58.3844   -2.9017  -11.6415 O   0  0  0  0  0  0  0  0  0  0  0  0
   59.3594   -4.0348  -13.3554 N   0  0  0  0  0  0  0  0  0  0  0  0
   59.4080   -4.6754  -14.1512 H   0  0  0  0  0  0  0  0  0  0  0  0
   60.6397   -3.3671  -13.0135 C   0  0  0  0  0  0  0  0  0  0  0  0
   60.8003   -2.2036  -13.9097 C   0  0  0  0  0  0  0  0  0  0  0  0
   60.1417   -2.1796  -15.1145 O   0  0  0  0  0  0  0  0  0  0  0  0
   61.5276   -1.2511  -13.5804 O   0  0  0  0  0  0  0  0  0  0  0  0
   60.2745   -1.4774  -15.8075 H   0  0  0  0  0  0  0  0  0  0  0  0
   61.7596   -4.3576  -13.1671 C   0  0  0  0  0  0  0  0  0  0  0  0
   62.2503   -4.5343  -14.5332 C   0  0  0  0  0  0  0  0  0  0  0  0
   63.5730   -4.1860  -14.8361 O   0  0  0  0  0  0  0  0  0  0  0  0
   61.5388   -4.9878  -15.4713 O   0  0  0  0  0  0  0  0  0  0  0  0
   64.2489   -4.9470  -14.7720 H   0  0  0  0  0  0  0  0  0  0  0  0
   56.8122   -3.2830  -15.0164 C   0  0  0  0  0  0  0  0  0  0  0  0
   56.1728   -4.2188  -14.0286 C   0  0  0  0  0  0  0  0  0  0  0  0
   55.7753   -5.5314  -14.6157 C   0  0  0  0  0  0  0  0  0  0  0  0
   55.8550   -5.0275   -8.0391 N   0  0  0  0  0  0  0  0  0  0  0  0
   56.1557   -4.3997   -6.7846 C   0  0  0  0  0  0  0  0  0  0  0  0
   55.8771   -3.1965   -6.6814 O   0  0  0  0  0  0  0  0  0  0  0  0
   56.0722   -6.0260   -8.1446 H   0  0  0  0  0  0  0  0  0  0  0  0
   56.7608   -5.1380   -5.6838 C   0  0  0  0  0  0  0  0  0  0  0  0
   56.9818   -6.6168   -6.0918 C   0  0  0  0  0  0  0  0  0  0  0  0
   55.5515   -7.1405   -5.9424 C   0  0  0  0  0  0  0  0  0  0  0  0
   54.8920   -6.2490   -4.9034 C   0  0  0  0  0  0  0  0  0  0  0  0
   55.9535   -5.3524   -4.5189 N   0  0  0  0  0  0  0  0  0  0  0  0
   56.1274   -4.8299   -3.2091 C   0  0  0  0  0  0  0  0  0  0  0  0
   57.0758   -4.0381   -3.0060 O   0  0  0  0  0  0  0  0  0  0  0  0
   55.2470   -5.1847   -2.0757 C   0  0  0  0  0  0  0  0  0  0  0  0
   55.8605   -4.6578   -0.8424 N   0  0  0  0  0  0  0  0  0  0  0  0
   56.4793   -5.3617   -0.3918 H   0  0  0  0  0  0  0  0  0  0  0  0
   56.4823   -3.8476   -1.0836 H   0  0  0  0  0  0  0  0  0  0  0  0
   53.8378   -4.6064   -2.2014 C   0  0  0  0  0  0  0  0  0  0  0  0
   52.8561   -5.6667   -1.9507 C   0  0  0  0  0  0  0  0  0  0  0  0
   53.2351   -6.8715   -1.4324 C   0  0  0  0  0  0  0  0  0  0  0  0
   52.2643   -7.8467   -1.2061 C   0  0  0  0  0  0  0  0  0  0  0  0
   50.9445   -7.6022   -1.4986 C   0  0  0  0  0  0  0  0  0  0  0  0
   50.5543   -6.3747   -2.0265 C   0  0  0  0  0  0  0  0  0  0  0  0
   51.5165   -5.4360   -2.2406 C   0  0  0  0  0  0  0  0  0  0  0  0
   54.7378   -3.0259   -8.7448 C   0  0  0  0  0  0  0  0  0  0  0  0
   53.3217   -2.9749   -8.3870 C   0  0  0  0  0  0  0  0  0  0  0  0
   52.8354   -4.0637   -7.6511 C   0  0  0  0  0  0  0  0  0  0  0  0
   51.5398   -4.0352   -7.2382 C   0  0  0  0  0  0  0  0  0  0  0  0
   50.7401   -2.9631   -7.5408 C   0  0  0  0  0  0  0  0  0  0  0  0
   51.2318   -1.8838   -8.2727 C   0  0  0  0  0  0  0  0  0  0  0  0
   52.5364   -1.9121   -8.6887 C   0  0  0  0  0  0  0  0  0  0  0  0
 21 22  1  0  0  0
 22 23  1  0  0  0
 22  6  1  0  0  0
  6  2  1  0  0  0
  2  3  1  0  0  0
  3  4  2  0  0  0
  3  1  1  0  0  0
  1 46  1  0  0  0
 46 47  1  0  0  0
 47 48  2  0  0  0
 48 49  1  0  0  0
 49 50  2  0  0  0
 50 51  1  0  0  0
 51 52  2  0  0  0
  1 24  1  0  0  0
 24 25  1  0  0  0
 25 26  2  0  0  0
 25 28  1  0  0  0
 28 29  1  0  0  0
 29 30  1  0  0  0
 30 31  1  0  0  0
 31 32  1  0  0  0
 32 33  1  0  0  0
 33 34  2  0  0  0
 33 35  1  0  0  0
 35 36  1  0  0  0
 35 39  1  0  0  0
 39 40  1  0  0  0
 40 41  2  0  0  0
 41 42  1  0  0  0
 42 43  2  0  0  0
 43 44  1  0  0  0
 44 45  2  0  0  0
  6  7  1  0  0  0
  7  8  2  0  0  0
  7  9  1  0  0  0
  9 11  1  0  0  0
 11 16  1  0  0  0
 16 17  1  0  0  0
 17 18  1  0  0  0
 17 19  2  0  0  0
 11 12  1  0  0  0
 12 13  1  0  0  0
 12 14  2  0  0  0
 52 47  1  0  0  0
 32 28  1  0  0  0
 45 40  1  0  0  0
  2  5  1  0  0  0
 24 27  1  0  0  0
 36 37  1  0  0  0
 36 38  1  0  0  0
  9 10  1  0  0  0
 18 20  1  0  0  0
 13 15  1  0  0  0
M  END
> <minimizedAffinity>
-6.44704

> <CNNscore>
0.3203198910

> <CNNaffinity>
6.7672491074

> <CNN_VS>
2.1676845551

> <CNNaffinity_variance>
0.2137921154

$$$$
[H]OC(=O)C([H])([H])[C@@]([H])(C(=O)O[H])N([H])C(=O)[C@@]([H])(N([H])C(=O)[C@@]([H])(N([H])C(=O)[C@@]1([H])N(C(=O)[C@@]([H])(N([H])[H])C([H])([H])c2c([H])c([H])c([H])c([H])c2[H])C([H])([H])C([H])([H])C1([H])[H])C([H])([H])c1c([H])c([H])c([H])c([H])c1[H])C([H])(C([H])([H])[H])C([H])([H])[H]


 52 54  0  0  0  0  0  0  0  0999 V2000
   56.8286   -4.3126   -9.4597 C   0  0  0  0  0  0  0  0  0  0  0  0
   57.5350   -3.5909  -11.8582 N   0  0  0  0  0  0  0  0  0  0  0  0
   57.3321   -4.4421  -10.7919 C   0  0  0  0  0  0  0  0  0  0  0  0
   57.7033   -5.6945  -11.0693 O   0  0  0  0  0  0  0  0  0  0  0  0
   57.3550   -2.5786  -11.8184 H   0  0  0  0  0  0  0  0  0  0  0  0
   58.0709   -4.0375  -13.1607 C   0  0  0  0  0  0  0  0  0  0  0  0
   59.5114   -3.8058  -13.2354 C   0  0  0  0  0  0  0  0  0  0  0  0
   60.2581   -4.5917  -12.5145 O   0  0  0  0  0  0  0  0  0  0  0  0
   60.2154   -2.8545  -13.9816 N   0  0  0  0  0  0  0  0  0  0  0  0
   59.7944   -2.1508  -14.5928 H   0  0  0  0  0  0  0  0  0  0  0  0
   61.6978   -2.8226  -13.9227 C   0  0  0  0  0  0  0  0  0  0  0  0
   62.1118   -1.4385  -13.6134 C   0  0  0  0  0  0  0  0  0  0  0  0
   61.2605   -0.6154  -12.9181 O   0  0  0  0  0  0  0  0  0  0  0  0
   63.2219   -1.0168  -13.9801 O   0  0  0  0  0  0  0  0  0  0  0  0
   61.4305    0.3520  -12.7560 H   0  0  0  0  0  0  0  0  0  0  0  0
   62.2460   -3.2956  -15.2397 C   0  0  0  0  0  0  0  0  0  0  0  0
   61.2761   -3.3518  -16.3326 C   0  0  0  0  0  0  0  0  0  0  0  0
   60.6935   -4.5808  -16.6685 O   0  0  0  0  0  0  0  0  0  0  0  0
   60.9294   -2.3411  -17.0034 O   0  0  0  0  0  0  0  0  0  0  0  0
   59.8022   -4.7785  -16.2139 H   0  0  0  0  0  0  0  0  0  0  0  0
   57.9487   -3.1814  -15.5121 C   0  0  0  0  0  0  0  0  0  0  0  0
   57.2108   -3.6010  -14.2713 C   0  0  0  0  0  0  0  0  0  0  0  0
   56.0497   -4.4989  -14.5381 C   0  0  0  0  0  0  0  0  0  0  0  0
   55.4320   -4.7460   -9.3299 N   0  0  0  0  0  0  0  0  0  0  0  0
   54.3495   -3.8402   -9.0728 C   0  0  0  0  0  0  0  0  0  0  0  0
   54.6393   -2.6399   -8.9653 O   0  0  0  0  0  0  0  0  0  0  0  0
   55.2138   -5.7449   -9.4286 H   0  0  0  0  0  0  0  0  0  0  0  0
   52.9752   -4.3060   -8.9421 C   0  0  0  0  0  0  0  0  0  0  0  0
   52.0132   -3.3423   -9.6821 C   0  0  0  0  0  0  0  0  0  0  0  0
   51.9535   -2.2046   -8.6600 C   0  0  0  0  0  0  0  0  0  0  0  0
   52.2362   -2.8460   -7.3117 C   0  0  0  0  0  0  0  0  0  0  0  0
   52.3850   -4.2425   -7.6374 N   0  0  0  0  0  0  0  0  0  0  0  0
   51.9826   -5.3109   -6.7914 C   0  0  0  0  0  0  0  0  0  0  0  0
   52.1888   -6.4843   -7.1766 O   0  0  0  0  0  0  0  0  0  0  0  0
   51.3250   -5.1009   -5.4841 C   0  0  0  0  0  0  0  0  0  0  0  0
   49.9671   -4.5839   -5.7370 N   0  0  0  0  0  0  0  0  0  0  0  0
   49.9494   -3.5442   -5.7480 H   0  0  0  0  0  0  0  0  0  0  0  0
   49.6555   -4.8823   -6.6937 H   0  0  0  0  0  0  0  0  0  0  0  0
   51.2102   -6.3788   -4.6535 C   0  0  0  0  0  0  0  0  0  0  0  0
   51.9927   -6.2270   -3.4224 C   0  0  0  0  0  0  0  0  0  0  0  0
   52.9016   -7.1721   -3.0425 C   0  0  0  0  0  0  0  0  0  0  0  0
   53.6260   -6.9807   -1.8665 C   0  0  0  0  0  0  0  0  0  0  0  0
   53.4312   -5.8582   -1.0988 C   0  0  0  0  0  0  0  0  0  0  0  0
   52.5057   -4.8921   -1.4833 C   0  0  0  0  0  0  0  0  0  0  0  0
   51.8082   -5.0973   -2.6341 C   0  0  0  0  0  0  0  0  0  0  0  0
   57.5917   -4.6970   -8.2879 C   0  0  0  0  0  0  0  0  0  0  0  0
   56.8286   -4.9715   -7.0721 C   0  0  0  0  0  0  0  0  0  0  0  0
   56.5638   -3.8668   -6.2517 C   0  0  0  0  0  0  0  0  0  0  0  0
   55.8027   -4.0571   -5.1406 C   0  0  0  0  0  0  0  0  0  0  0  0
   55.3132   -5.3027   -4.8417 C   0  0  0  0  0  0  0  0  0  0  0  0
   55.5807   -6.3961   -5.6634 C   0  0  0  0  0  0  0  0  0  0  0  0
   56.3470   -6.2050   -6.7823 C   0  0  0  0  0  0  0  0  0  0  0  0
 21 22  1  0  0  0
 22 23  1  0  0  0
 22  6  1  0  0  0
  6  2  1  0  0  0
  2  3  1  0  0  0
  3  4  2  0  0  0
  3  1  1  0  0  0
  1 46  1  0  0  0
 46 47  1  0  0  0
 47 48  2  0  0  0
 48 49  1  0  0  0
 49 50  2  0  0  0
 50 51  1  0  0  0
 51 52  2  0  0  0
  1 24  1  0  0  0
 24 25  1  0  0  0
 25 26  2  0  0  0
 25 28  1  0  0  0
 28 29  1  0  0  0
 29 30  1  0  0  0
 30 31  1  0  0  0
 31 32  1  0  0  0
 32 33  1  0  0  0
 33 34  2  0  0  0
 33 35  1  0  0  0
 35 36  1  0  0  0
 35 39  1  0  0  0
 39 40  1  0  0  0
 40 41  2  0  0  0
 41 42  1  0  0  0
 42 43  2  0  0  0
 43 44  1  0  0  0
 44 45  2  0  0  0
  6  7  1  0  0  0
  7  8  2  0  0  0
  7  9  1  0  0  0
  9 11  1  0  0  0
 11 16  1  0  0  0
 16 17  1  0  0  0
 17 18  1  0  0  0
 17 19  2  0  0  0
 11 12  1  0  0  0
 12 13  1  0  0  0
 12 14  2  0  0  0
 52 47  1  0  0  0
 32 28  1  0  0  0
 45 40  1  0  0  0
  2  5  1  0  0  0
 24 27  1  0  0  0
 36 37  1  0  0  0
 36 38  1  0  0  0
  9 10  1  0  0  0
 18 20  1  0  0  0
 13 15  1  0  0  0
M  END
> <minimizedAffinity>
-6.86390

> <CNNscore>
0.2577708960

> <CNNaffinity>
6.9353475571

> <CNN_VS>
1.7877308130

> <CNNaffinity_variance>
0.1178709492

$$$$
[H]OC(=O)C([H])([H])[C@@]([H])(C(=O)O[H])N([H])C(=O)[C@@]([H])(N([H])C(=O)[C@@]([H])(N([H])C(=O)[C@@]1([H])N(C(=O)[C@@]([H])(N([H])[H])C([H])([H])c2c([H])c([H])c([H])c([H])c2[H])C([H])([H])C([H])([H])C1([H])[H])C([H])([H])c1c([H])c([H])c([H])c([H])c1[H])C([H])(C([H])([H])[H])C([H])([H])[H]


 52 54  0  0  0  0  0  0  0  0999 V2000
   57.6221   -5.5828   -8.1331 C   0  0  0  0  0  0  0  0  0  0  0  0
   59.8112   -6.7795   -8.8734 N   0  0  0  0  0  0  0  0  0  0  0  0
   59.0124   -5.7489   -8.4234 C   0  0  0  0  0  0  0  0  0  0  0  0
   59.7072   -4.6279   -8.2132 O   0  0  0  0  0  0  0  0  0  0  0  0
   59.4481   -7.7055   -9.1365 H   0  0  0  0  0  0  0  0  0  0  0  0
   61.2708   -6.6496   -9.0630 C   0  0  0  0  0  0  0  0  0  0  0  0
   61.6992   -7.3404  -10.2770 C   0  0  0  0  0  0  0  0  0  0  0  0
   60.9860   -8.3689  -10.6351 O   0  0  0  0  0  0  0  0  0  0  0  0
   62.7741   -7.0518  -11.1248 N   0  0  0  0  0  0  0  0  0  0  0  0
   63.4446   -6.2907  -10.9937 H   0  0  0  0  0  0  0  0  0  0  0  0
   63.0036   -7.8838  -12.3319 C   0  0  0  0  0  0  0  0  0  0  0  0
   64.1504   -8.7746  -12.0600 C   0  0  0  0  0  0  0  0  0  0  0  0
   64.4525   -9.7804  -12.9449 O   0  0  0  0  0  0  0  0  0  0  0  0
   64.8390   -8.6198  -11.0371 O   0  0  0  0  0  0  0  0  0  0  0  0
   65.1476  -10.4743  -12.7826 H   0  0  0  0  0  0  0  0  0  0  0  0
   63.2569   -6.9783  -13.5043 C   0  0  0  0  0  0  0  0  0  0  0  0
   62.9201   -5.5718  -13.2877 C   0  0  0  0  0  0  0  0  0  0  0  0
   61.5736   -5.1861  -13.2629 O   0  0  0  0  0  0  0  0  0  0  0  0
   63.7867   -4.6700  -13.1213 O   0  0  0  0  0  0  0  0  0  0  0  0
   61.1449   -5.1620  -12.3378 H   0  0  0  0  0  0  0  0  0  0  0  0
   61.9633   -8.3031   -7.3128 C   0  0  0  0  0  0  0  0  0  0  0  0
   61.9967   -6.8830   -7.8052 C   0  0  0  0  0  0  0  0  0  0  0  0
   63.3521   -6.2618   -7.7542 C   0  0  0  0  0  0  0  0  0  0  0  0
   57.2869   -5.8912   -6.7375 N   0  0  0  0  0  0  0  0  0  0  0  0
   56.0974   -5.4150   -6.0921 C   0  0  0  0  0  0  0  0  0  0  0  0
   55.3336   -4.7164   -6.7738 O   0  0  0  0  0  0  0  0  0  0  0  0
   57.9314   -6.4770   -6.1928 H   0  0  0  0  0  0  0  0  0  0  0  0
   55.7997   -5.7342   -4.7020 C   0  0  0  0  0  0  0  0  0  0  0  0
   56.6835   -6.9147   -4.2252 C   0  0  0  0  0  0  0  0  0  0  0  0
   55.9332   -8.0773   -4.8792 C   0  0  0  0  0  0  0  0  0  0  0  0
   54.4931   -7.6127   -5.0186 C   0  0  0  0  0  0  0  0  0  0  0  0
   54.5126   -6.3001   -4.4227 N   0  0  0  0  0  0  0  0  0  0  0  0
   53.4345   -5.7362   -3.6887 C   0  0  0  0  0  0  0  0  0  0  0  0
   53.5638   -4.5740   -3.2410 O   0  0  0  0  0  0  0  0  0  0  0  0
   52.1737   -6.4606   -3.4224 C   0  0  0  0  0  0  0  0  0  0  0  0
   52.3860   -7.3236   -2.2455 N   0  0  0  0  0  0  0  0  0  0  0  0
   52.7034   -8.2749   -2.5207 H   0  0  0  0  0  0  0  0  0  0  0  0
   53.1601   -6.9256   -1.6592 H   0  0  0  0  0  0  0  0  0  0  0  0
   50.9929   -5.5331   -3.1368 C   0  0  0  0  0  0  0  0  0  0  0  0
   50.5441   -4.9214   -4.3919 C   0  0  0  0  0  0  0  0  0  0  0  0
   50.9237   -5.4303   -5.6005 C   0  0  0  0  0  0  0  0  0  0  0  0
   50.4667   -4.8174   -6.7668 C   0  0  0  0  0  0  0  0  0  0  0  0
   49.6456   -3.7177   -6.7046 C   0  0  0  0  0  0  0  0  0  0  0  0
   49.2561   -3.1966   -5.4740 C   0  0  0  0  0  0  0  0  0  0  0  0
   49.7129   -3.8084   -4.3472 C   0  0  0  0  0  0  0  0  0  0  0  0
   56.8485   -4.4500   -8.6039 C   0  0  0  0  0  0  0  0  0  0  0  0
   56.7007   -4.3159  -10.0517 C   0  0  0  0  0  0  0  0  0  0  0  0
   57.8840   -4.3913  -10.7985 C   0  0  0  0  0  0  0  0  0  0  0  0
   57.7946   -4.3361  -12.1546 C   0  0  0  0  0  0  0  0  0  0  0  0
   56.5723   -4.2097  -12.7634 C   0  0  0  0  0  0  0  0  0  0  0  0
   55.4002   -4.1361  -12.0132 C   0  0  0  0  0  0  0  0  0  0  0  0
   55.4896   -4.1916  -10.6476 C   0  0  0  0  0  0  0  0  0  0  0  0
 21 22  1  0  0  0
 22 23  1  0  0  0
 22  6  1  0  0  0
  6  2  1  0  0  0
  2  3  1  0  0  0
  3  4  2  0  0  0
  3  1  1  0  0  0
  1 46  1  0  0  0
 46 47  1  0  0  0
 47 48  2  0  0  0
 48 49  1  0  0  0
 49 50  2  0  0  0
 50 51  1  0  0  0
 51 52  2  0  0  0
  1 24  1  0  0  0
 24 25  1  0  0  0
 25 26  2  0  0  0
 25 28  1  0  0  0
 28 29  1  0  0  0
 29 30  1  0  0  0
 30 31  1  0  0  0
 31 32  1  0  0  0
 32 33  1  0  0  0
 33 34  2  0  0  0
 33 35  1  0  0  0
 35 36  1  0  0  0
 35 39  1  0  0  0
 39 40  1  0  0  0
 40 41  2  0  0  0
 41 42  1  0  0  0
 42 43  2  0  0  0
 43 44  1  0  0  0
 44 45  2  0  0  0
  6  7  1  0  0  0
  7  8  2  0  0  0
  7  9  1  0  0  0
  9 11  1  0  0  0
 11 16  1  0  0  0
 16 17  1  0  0  0
 17 18  1  0  0  0
 17 19  2  0  0  0
 11 12  1  0  0  0
 12 13  1  0  0  0
 12 14  2  0  0  0
 52 47  1  0  0  0
 32 28  1  0  0  0
 45 40  1  0  0  0
  2  5  1  0  0  0
 24 27  1  0  0  0
 36 37  1  0  0  0
 36 38  1  0  0  0
  9 10  1  0  0  0
 18 20  1  0  0  0
 13 15  1  0  0  0
M  END
> <minimizedAffinity>
-6.22154

> <CNNscore>
0.2446695119

> <CNNaffinity>
6.5987043381

> <CNN_VS>
1.6145017147

> <CNNaffinity_variance>
0.1869569719

$$$$
[H]OC(=O)C([H])([H])[C@@]([H])(C(=O)O[H])N([H])C(=O)[C@@]([H])(N([H])C(=O)[C@@]([H])(N([H])C(=O)[C@@]1([H])N(C(=O)[C@@]([H])(N([H])[H])C([H])([H])c2c([H])c([H])c([H])c([H])c2[H])C([H])([H])C([H])([H])C1([H])[H])C([H])([H])c1c([H])c([H])c([H])c([H])c1[H])C([H])(C([H])([H])[H])C([H])([H])[H]


 52 54  0  0  0  0  0  0  0  0999 V2000
   54.5014   -4.7401   -8.3543 C   0  0  0  0  0  0  0  0  0  0  0  0
   56.8189   -4.8888   -9.5289 N   0  0  0  0  0  0  0  0  0  0  0  0
   55.4459   -4.8050   -9.4260 C   0  0  0  0  0  0  0  0  0  0  0  0
   54.8513   -4.7866  -10.6217 O   0  0  0  0  0  0  0  0  0  0  0  0
   57.4452   -4.9637   -8.7160 H   0  0  0  0  0  0  0  0  0  0  0  0
   57.5340   -4.9198  -10.8215 C   0  0  0  0  0  0  0  0  0  0  0  0
   58.8929   -5.4280  -10.6499 C   0  0  0  0  0  0  0  0  0  0  0  0
   59.7543   -5.0854  -11.5640 O   0  0  0  0  0  0  0  0  0  0  0  0
   59.4122   -6.2348   -9.6317 N   0  0  0  0  0  0  0  0  0  0  0  0
   58.8808   -6.6065   -8.8408 H   0  0  0  0  0  0  0  0  0  0  0  0
   60.8483   -6.6081   -9.6483 C   0  0  0  0  0  0  0  0  0  0  0  0
   60.9355   -8.0825   -9.6821 C   0  0  0  0  0  0  0  0  0  0  0  0
   60.9546   -8.7879   -8.5040 O   0  0  0  0  0  0  0  0  0  0  0  0
   60.9935   -8.6849  -10.7676 O   0  0  0  0  0  0  0  0  0  0  0  0
   61.1058   -9.7701   -8.4458 H   0  0  0  0  0  0  0  0  0  0  0  0
   61.5139   -6.0304   -8.4309 C   0  0  0  0  0  0  0  0  0  0  0  0
   62.9376   -6.3360   -8.2967 C   0  0  0  0  0  0  0  0  0  0  0  0
   63.8555   -5.7112   -9.1508 O   0  0  0  0  0  0  0  0  0  0  0  0
   63.3946   -7.1452   -7.4433 O   0  0  0  0  0  0  0  0  0  0  0  0
   64.2716   -4.8531   -8.7895 H   0  0  0  0  0  0  0  0  0  0  0  0
   58.5552   -2.8578  -11.8126 C   0  0  0  0  0  0  0  0  0  0  0  0
   57.3176   -3.6799  -11.5826 C   0  0  0  0  0  0  0  0  0  0  0  0
   56.4729   -3.8469  -12.8009 C   0  0  0  0  0  0  0  0  0  0  0  0
   54.9210   -5.5046   -7.1733 N   0  0  0  0  0  0  0  0  0  0  0  0
   55.8123   -4.9839   -6.1769 C   0  0  0  0  0  0  0  0  0  0  0  0
   56.2266   -3.8283   -6.3473 O   0  0  0  0  0  0  0  0  0  0  0  0
   54.5606   -6.4584   -7.0489 H   0  0  0  0  0  0  0  0  0  0  0  0
   56.2142   -5.7737   -5.0204 C   0  0  0  0  0  0  0  0  0  0  0  0
   55.9224   -7.2748   -5.2727 C   0  0  0  0  0  0  0  0  0  0  0  0
   54.4116   -7.2870   -5.0280 C   0  0  0  0  0  0  0  0  0  0  0  0
   54.1390   -6.1369   -4.0730 C   0  0  0  0  0  0  0  0  0  0  0  0
   55.4538   -5.6040   -3.8171 N   0  0  0  0  0  0  0  0  0  0  0  0
   55.8665   -5.0477   -2.5765 C   0  0  0  0  0  0  0  0  0  0  0  0
   57.0298   -4.5933   -2.4863 O   0  0  0  0  0  0  0  0  0  0  0  0
   54.9901   -4.9891   -1.3874 C   0  0  0  0  0  0  0  0  0  0  0  0
   53.6500   -4.5633   -1.8318 N   0  0  0  0  0  0  0  0  0  0  0  0
   53.5406   -3.5303   -1.7820 H   0  0  0  0  0  0  0  0  0  0  0  0
   53.5252   -4.8125   -2.8436 H   0  0  0  0  0  0  0  0  0  0  0  0
   54.8584   -6.3309   -0.6674 C   0  0  0  0  0  0  0  0  0  0  0  0
   56.1185   -7.0711   -0.7902 C   0  0  0  0  0  0  0  0  0  0  0  0
   57.2062   -6.7439   -0.0329 C   0  0  0  0  0  0  0  0  0  0  0  0
   58.3808   -7.4807   -0.1811 C   0  0  0  0  0  0  0  0  0  0  0  0
   58.4463   -8.5220   -1.0748 C   0  0  0  0  0  0  0  0  0  0  0  0
   57.3390   -8.8589   -1.8482 C   0  0  0  0  0  0  0  0  0  0  0  0
   56.2019   -8.1277   -1.6894 C   0  0  0  0  0  0  0  0  0  0  0  0
   53.8434   -3.5103   -7.9570 C   0  0  0  0  0  0  0  0  0  0  0  0
   52.4721   -3.6318   -7.4665 C   0  0  0  0  0  0  0  0  0  0  0  0
   51.5876   -2.6190   -7.8608 C   0  0  0  0  0  0  0  0  0  0  0  0
   50.2845   -2.7187   -7.4839 C   0  0  0  0  0  0  0  0  0  0  0  0
   49.8597   -3.7875   -6.7371 C   0  0  0  0  0  0  0  0  0  0  0  0
   50.7457   -4.7910   -6.3496 C   0  0  0  0  0  0  0  0  0  0  0  0
   52.0580   -4.6910   -6.7289 C   0  0  0  0  0  0  0  0  0  0  0  0
 21 22  1  0  0  0
 22 23  1  0  0  0
 22  6  1  0  0  0
  6  2  1  0  0  0
  2  3  1  0  0  0
  3  4  2  0  0  0
  3  1  1  0  0  0
  1 46  1  0  0  0
 46 47  1  0  0  0
 47 48  2  0  0  0
 48 49  1  0  0  0
 49 50  2  0  0  0
 50 51  1  0  0  0
 51 52  2  0  0  0
  1 24  1  0  0  0
 24 25  1  0  0  0
 25 26  2  0  0  0
 25 28  1  0  0  0
 28 29  1  0  0  0
 29 30  1  0  0  0
 30 31  1  0  0  0
 31 32  1  0  0  0
 32 33  1  0  0  0
 33 34  2  0  0  0
 33 35  1  0  0  0
 35 36  1  0  0  0
 35 39  1  0  0  0
 39 40  1  0  0  0
 40 41  2  0  0  0
 41 42  1  0  0  0
 42 43  2  0  0  0
 43 44  1  0  0  0
 44 45  2  0  0  0
  6  7  1  0  0  0
  7  8  2  0  0  0
  7  9  1  0  0  0
  9 11  1  0  0  0
 11 16  1  0  0  0
 16 17  1  0  0  0
 17 18  1  0  0  0
 17 19  2  0  0  0
 11 12  1  0  0  0
 12 13  1  0  0  0
 12 14  2  0  0  0
 52 47  1  0  0  0
 32 28  1  0  0  0
 45 40  1  0  0  0
  2  5  1  0  0  0
 24 27  1  0  0  0
 36 37  1  0  0  0
 36 38  1  0  0  0
  9 10  1  0  0  0
 18 20  1  0  0  0
 13 15  1  0  0  0
M  END
> <minimizedAffinity>
-7.16915

> <CNNscore>
0.2202370465

> <CNNaffinity>
7.0666799545

> <CNN_VS>
1.5563447475

> <CNNaffinity_variance>
0.2704443336

$$$$
[H]OC(=O)C([H])([H])[C@@]([H])(C(=O)O[H])N([H])C(=O)[C@@]([H])(N([H])C(=O)[C@@]([H])(N([H])C(=O)[C@@]1([H])N(C(=O)[C@@]([H])(N([H])[H])C([H])([H])c2c([H])c([H])c([H])c([H])c2[H])C([H])([H])C([H])([H])C1([H])[H])C([H])([H])c1c([H])c([H])c([H])c([H])c1[H])C([H])(C([H])([H])[H])C([H])([H])[H]


 52 54  0  0  0  0  0  0  0  0999 V2000
   62.5713  -10.5158   -9.3966 C   0  0  0  0  0  0  0  0  0  0  0  0
   63.1834  -11.7491   -7.1883 N   0  0  0  0  0  0  0  0  0  0  0  0
   62.3702  -11.1833   -8.1480 C   0  0  0  0  0  0  0  0  0  0  0  0
   61.0764  -11.2754   -7.8301 O   0  0  0  0  0  0  0  0  0  0  0  0
   64.2112  -11.7318   -7.2335 H   0  0  0  0  0  0  0  0  0  0  0  0
   62.6638  -12.4066   -5.9713 C   0  0  0  0  0  0  0  0  0  0  0  0
   62.2964  -11.4151   -4.9632 C   0  0  0  0  0  0  0  0  0  0  0  0
   63.2824  -10.8243   -4.3521 O   0  0  0  0  0  0  0  0  0  0  0  0
   61.0242  -10.9985   -4.5567 N   0  0  0  0  0  0  0  0  0  0  0  0
   60.1384  -11.3602   -4.9182 H   0  0  0  0  0  0  0  0  0  0  0  0
   60.8908   -9.9430   -3.5222 C   0  0  0  0  0  0  0  0  0  0  0  0
   60.0983  -10.4973   -2.4053 C   0  0  0  0  0  0  0  0  0  0  0  0
   58.7535  -10.2294   -2.3295 O   0  0  0  0  0  0  0  0  0  0  0  0
   60.6414  -11.2005   -1.5363 O   0  0  0  0  0  0  0  0  0  0  0  0
   58.1770  -10.4881   -1.5603 H   0  0  0  0  0  0  0  0  0  0  0  0
   60.2341   -8.7398   -4.1385 C   0  0  0  0  0  0  0  0  0  0  0  0
   60.7315   -7.4490   -3.6644 C   0  0  0  0  0  0  0  0  0  0  0  0
   61.9950   -7.0080   -4.0787 O   0  0  0  0  0  0  0  0  0  0  0  0
   60.0786   -6.6977   -2.8891 O   0  0  0  0  0  0  0  0  0  0  0  0
   61.9981   -6.4119   -4.9062 H   0  0  0  0  0  0  0  0  0  0  0  0
   64.9704  -13.3756   -5.8383 C   0  0  0  0  0  0  0  0  0  0  0  0
   63.4992  -13.5539   -5.5848 C   0  0  0  0  0  0  0  0  0  0  0  0
   63.1858  -14.1158   -4.2389 C   0  0  0  0  0  0  0  0  0  0  0  0
   62.3874   -9.0622   -9.3058 N   0  0  0  0  0  0  0  0  0  0  0  0
   61.3623   -8.3545  -10.0177 C   0  0  0  0  0  0  0  0  0  0  0  0
   60.6087   -9.0319  -10.7313 O   0  0  0  0  0  0  0  0  0  0  0  0
   63.0197   -8.5211   -8.7036 H   0  0  0  0  0  0  0  0  0  0  0  0
   61.2132   -6.9091   -9.9103 C   0  0  0  0  0  0  0  0  0  0  0  0
   62.3215   -6.3253   -8.9977 C   0  0  0  0  0  0  0  0  0  0  0  0
   61.7517   -6.7035   -7.6284 C   0  0  0  0  0  0  0  0  0  0  0  0
   60.2460   -6.7850   -7.8162 C   0  0  0  0  0  0  0  0  0  0  0  0
   60.0677   -6.4215   -9.1998 N   0  0  0  0  0  0  0  0  0  0  0  0
   58.9538   -5.6957   -9.7014 C   0  0  0  0  0  0  0  0  0  0  0  0
   58.9009   -5.4625  -10.9305 O   0  0  0  0  0  0  0  0  0  0  0  0
   57.8616   -5.1967   -8.8391 C   0  0  0  0  0  0  0  0  0  0  0  0
   58.4622   -4.3564   -7.7865 N   0  0  0  0  0  0  0  0  0  0  0  0
   58.6841   -4.9104   -6.9348 H   0  0  0  0  0  0  0  0  0  0  0  0
   59.3809   -3.9796   -8.1262 H   0  0  0  0  0  0  0  0  0  0  0  0
   56.8285   -4.3618   -9.5953 C   0  0  0  0  0  0  0  0  0  0  0  0
   55.5401   -4.4406   -8.8991 C   0  0  0  0  0  0  0  0  0  0  0  0
   55.3811   -5.2280   -7.7952 C   0  0  0  0  0  0  0  0  0  0  0  0
   54.1384   -5.2658   -7.1638 C   0  0  0  0  0  0  0  0  0  0  0  0
   53.0869   -4.5222   -7.6422 C   0  0  0  0  0  0  0  0  0  0  0  0
   53.2455   -3.7177   -8.7671 C   0  0  0  0  0  0  0  0  0  0  0  0
   54.4659   -3.6947   -9.3696 C   0  0  0  0  0  0  0  0  0  0  0  0
   63.6649  -10.8353  -10.2939 C   0  0  0  0  0  0  0  0  0  0  0  0
   63.3365  -11.6545  -11.4588 C   0  0  0  0  0  0  0  0  0  0  0  0
   62.2700  -12.5491  -11.2984 C   0  0  0  0  0  0  0  0  0  0  0  0
   61.8829  -13.2893  -12.3719 C   0  0  0  0  0  0  0  0  0  0  0  0
   62.5278  -13.1546  -13.5746 C   0  0  0  0  0  0  0  0  0  0  0  0
   63.5872  -12.2619  -13.7258 C   0  0  0  0  0  0  0  0  0  0  0  0
   63.9774  -11.5164  -12.6452 C   0  0  0  0  0  0  0  0  0  0  0  0
 21 22  1  0  0  0
 22 23  1  0  0  0
 22  6  1  0  0  0
  6  2  1  0  0  0
  2  3  1  0  0  0
  3  4  2  0  0  0
  3  1  1  0  0  0
  1 46  1  0  0  0
 46 47  1  0  0  0
 47 48  2  0  0  0
 48 49  1  0  0  0
 49 50  2  0  0  0
 50 51  1  0  0  0
 51 52  2  0  0  0
  1 24  1  0  0  0
 24 25  1  0  0  0
 25 26  2  0  0  0
 25 28  1  0  0  0
 28 29  1  0  0  0
 29 30  1  0  0  0
 30 31  1  0  0  0
 31 32  1  0  0  0
 32 33  1  0  0  0
 33 34  2  0  0  0
 33 35  1  0  0  0
 35 36  1  0  0  0
 35 39  1  0  0  0
 39 40  1  0  0  0
 40 41  2  0  0  0
 41 42  1  0  0  0
 42 43  2  0  0  0
 43 44  1  0  0  0
 44 45  2  0  0  0
  6  7  1  0  0  0
  7  8  2  0  0  0
  7  9  1  0  0  0
  9 11  1  0  0  0
 11 16  1  0  0  0
 16 17  1  0  0  0
 17 18  1  0  0  0
 17 19  2  0  0  0
 11 12  1  0  0  0
 12 13  1  0  0  0
 12 14  2  0  0  0
 52 47  1  0  0  0
 32 28  1  0  0  0
 45 40  1  0  0  0
  2  5  1  0  0  0
 24 27  1  0  0  0
 36 37  1  0  0  0
 36 38  1  0  0  0
  9 10  1  0  0  0
 18 20  1  0  0  0
 13 15  1  0  0  0
M  END
> <minimizedAffinity>
-5.38847

> <CNNscore>
0.2201244384

> <CNNaffinity>
6.0738754272

> <CNN_VS>
1.3370084763

> <CNNaffinity_variance>
0.3931683898

$$$$
[H]OC(=O)C([H])([H])[C@@]([H])(C(=O)O[H])N([H])C(=O)[C@@]([H])(N([H])C(=O)[C@@]([H])(N([H])C(=O)[C@@]1([H])N(C(=O)[C@@]([H])(N([H])[H])C([H])([H])c2c([H])c([H])c([H])c([H])c2[H])C([H])([H])C([H])([H])C1([H])[H])C([H])([H])c1c([H])c([H])c([H])c([H])c1[H])C([H])(C([H])([H])[H])C([H])([H])[H]


 52 54  0  0  0  0  0  0  0  0999 V2000
   57.7159   -5.0112   -7.8312 C   0  0  0  0  0  0  0  0  0  0  0  0
   56.2912   -6.5301   -6.2706 N   0  0  0  0  0  0  0  0  0  0  0  0
   56.8889   -5.3717   -6.7217 C   0  0  0  0  0  0  0  0  0  0  0  0
   56.6393   -4.3316   -5.9220 O   0  0  0  0  0  0  0  0  0  0  0  0
   56.4095   -7.4446   -6.7272 H   0  0  0  0  0  0  0  0  0  0  0  0
   55.4480   -6.5877   -5.0586 C   0  0  0  0  0  0  0  0  0  0  0  0
   55.9984   -7.5314   -4.0887 C   0  0  0  0  0  0  0  0  0  0  0  0
   55.3219   -8.6287   -3.9067 O   0  0  0  0  0  0  0  0  0  0  0  0
   57.1634   -7.4299   -3.3207 N   0  0  0  0  0  0  0  0  0  0  0  0
   57.8091   -6.6367   -3.3253 H   0  0  0  0  0  0  0  0  0  0  0  0
   57.5446   -8.5387   -2.4111 C   0  0  0  0  0  0  0  0  0  0  0  0
   57.2417   -8.1178   -1.0277 C   0  0  0  0  0  0  0  0  0  0  0  0
   58.1545   -8.3588   -0.0304 O   0  0  0  0  0  0  0  0  0  0  0  0
   56.1680   -7.5507   -0.7632 O   0  0  0  0  0  0  0  0  0  0  0  0
   57.9813   -8.1899    0.9352 H   0  0  0  0  0  0  0  0  0  0  0  0
   59.0038   -8.8434   -2.6025 C   0  0  0  0  0  0  0  0  0  0  0  0
   59.8607   -7.6765   -2.8088 C   0  0  0  0  0  0  0  0  0  0  0  0
   60.5429   -7.1262   -1.7159 O   0  0  0  0  0  0  0  0  0  0  0  0
   60.0223   -7.1259   -3.9324 O   0  0  0  0  0  0  0  0  0  0  0  0
   61.4915   -7.4735   -1.5754 H   0  0  0  0  0  0  0  0  0  0  0  0
   53.1076   -5.9239   -4.4595 C   0  0  0  0  0  0  0  0  0  0  0  0
   54.0197   -6.6572   -5.4033 C   0  0  0  0  0  0  0  0  0  0  0  0
   53.7226   -6.4044   -6.8432 C   0  0  0  0  0  0  0  0  0  0  0  0
   59.0634   -5.5886   -7.7532 N   0  0  0  0  0  0  0  0  0  0  0  0
   59.8823   -5.8295   -8.9064 C   0  0  0  0  0  0  0  0  0  0  0  0
   59.4027   -5.5198  -10.0064 O   0  0  0  0  0  0  0  0  0  0  0  0
   59.4436   -5.8324   -6.8305 H   0  0  0  0  0  0  0  0  0  0  0  0
   61.2131   -6.4117   -8.7930 C   0  0  0  0  0  0  0  0  0  0  0  0
   61.7815   -6.7203  -10.2014 C   0  0  0  0  0  0  0  0  0  0  0  0
   61.0100   -8.0048  -10.5135 C   0  0  0  0  0  0  0  0  0  0  0  0
   60.6870   -8.6297   -9.1665 C   0  0  0  0  0  0  0  0  0  0  0  0
   61.3055   -7.7261   -8.2287 N   0  0  0  0  0  0  0  0  0  0  0  0
   61.8985   -8.1262   -7.0010 C   0  0  0  0  0  0  0  0  0  0  0  0
   62.3821   -7.2417   -6.2583 O   0  0  0  0  0  0  0  0  0  0  0  0
   61.9784   -9.5368   -6.5657 C   0  0  0  0  0  0  0  0  0  0  0  0
   63.2142  -10.1151   -7.1253 N   0  0  0  0  0  0  0  0  0  0  0  0
   63.0434  -10.5625   -8.0485 H   0  0  0  0  0  0  0  0  0  0  0  0
   63.9051   -9.3463   -7.3070 H   0  0  0  0  0  0  0  0  0  0  0  0
   62.0120   -9.6990   -5.0463 C   0  0  0  0  0  0  0  0  0  0  0  0
   61.6045  -11.0637   -4.6967 C   0  0  0  0  0  0  0  0  0  0  0  0
   62.2215  -11.7488   -3.6898 C   0  0  0  0  0  0  0  0  0  0  0  0
   61.7949  -13.0422   -3.3904 C   0  0  0  0  0  0  0  0  0  0  0  0
   60.7685  -13.6220   -4.0959 C   0  0  0  0  0  0  0  0  0  0  0  0
   60.1367  -12.9263   -5.1227 C   0  0  0  0  0  0  0  0  0  0  0  0
   60.5676  -11.6653   -5.4001 C   0  0  0  0  0  0  0  0  0  0  0  0
   57.2407   -5.0113   -9.2014 C   0  0  0  0  0  0  0  0  0  0  0  0
   55.9841   -4.3104   -9.4573 C   0  0  0  0  0  0  0  0  0  0  0  0
   55.3816   -4.5644  -10.6967 C   0  0  0  0  0  0  0  0  0  0  0  0
   54.1785   -3.9865  -10.9587 C   0  0  0  0  0  0  0  0  0  0  0  0
   53.5809   -3.1782  -10.0261 C   0  0  0  0  0  0  0  0  0  0  0  0
   54.1865   -2.9313   -8.7955 C   0  0  0  0  0  0  0  0  0  0  0  0
   55.3980   -3.5129   -8.5311 C   0  0  0  0  0  0  0  0  0  0  0  0
 21 22  1  0  0  0
 22 23  1  0  0  0
 22  6  1  0  0  0
  6  2  1  0  0  0
  2  3  1  0  0  0
  3  4  2  0  0  0
  3  1  1  0  0  0
  1 46  1  0  0  0
 46 47  1  0  0  0
 47 48  2  0  0  0
 48 49  1  0  0  0
 49 50  2  0  0  0
 50 51  1  0  0  0
 51 52  2  0  0  0
  1 24  1  0  0  0
 24 25  1  0  0  0
 25 26  2  0  0  0
 25 28  1  0  0  0
 28 29  1  0  0  0
 29 30  1  0  0  0
 30 31  1  0  0  0
 31 32  1  0  0  0
 32 33  1  0  0  0
 33 34  2  0  0  0
 33 35  1  0  0  0
 35 36  1  0  0  0
 35 39  1  0  0  0
 39 40  1  0  0  0
 40 41  2  0  0  0
 41 42  1  0  0  0
 42 43  2  0  0  0
 43 44  1  0  0  0
 44 45  2  0  0  0
  6  7  1  0  0  0
  7  8  2  0  0  0
  7  9  1  0  0  0
  9 11  1  0  0  0
 11 16  1  0  0  0
 16 17  1  0  0  0
 17 18  1  0  0  0
 17 19  2  0  0  0
 11 12  1  0  0  0
 12 13  1  0  0  0
 12 14  2  0  0  0
 52 47  1  0  0  0
 32 28  1  0  0  0
 45 40  1  0  0  0
  2  5  1  0  0  0
 24 27  1  0  0  0
 36 37  1  0  0  0
 36 38  1  0  0  0
  9 10  1  0  0  0
 18 20  1  0  0  0
 13 15  1  0  0  0
M  END
> <minimizedAffinity>
-5.26093

> <CNNscore>
0.2055201679

> <CNNaffinity>
6.2466616631

> <CNN_VS>
1.2838149071

> <CNNaffinity_variance>
0.1425372362

$$$$
[H]OC(=O)C([H])([H])[C@@]([H])(C(=O)O[H])N([H])C(=O)[C@@]([H])(N([H])C(=O)[C@@]([H])(N([H])C(=O)[C@@]1([H])N(C(=O)[C@@]([H])(N([H])[H])C([H])([H])c2c([H])c([H])c([H])c([H])c2[H])C([H])([H])C([H])([H])C1([H])[H])C([H])([H])c1c([H])c([H])c([H])c([H])c1[H])C([H])(C([H])([H])[H])C([H])([H])[H]


 52 54  0  0  0  0  0  0  0  0999 V2000
   58.0647   -4.7446  -10.7793 C   0  0  0  0  0  0  0  0  0  0  0  0
   59.7437   -6.2949   -9.5343 N   0  0  0  0  0  0  0  0  0  0  0  0
   59.2915   -5.4267  -10.5061 C   0  0  0  0  0  0  0  0  0  0  0  0
   60.2277   -5.1632  -11.4213 O   0  0  0  0  0  0  0  0  0  0  0  0
   59.1512   -6.6529   -8.7730 H   0  0  0  0  0  0  0  0  0  0  0  0
   61.1189   -6.8346   -9.5065 C   0  0  0  0  0  0  0  0  0  0  0  0
   61.1325   -8.2395   -9.9068 C   0  0  0  0  0  0  0  0  0  0  0  0
   59.9999   -8.7301  -10.3208 O   0  0  0  0  0  0  0  0  0  0  0  0
   62.1988   -9.1452   -9.9154 N   0  0  0  0  0  0  0  0  0  0  0  0
   63.1543   -8.9386   -9.6145 H   0  0  0  0  0  0  0  0  0  0  0  0
   61.9828  -10.5322  -10.3964 C   0  0  0  0  0  0  0  0  0  0  0  0
   62.0942  -11.4396   -9.2358 C   0  0  0  0  0  0  0  0  0  0  0  0
   60.9546  -11.9037   -8.6261 O   0  0  0  0  0  0  0  0  0  0  0  0
   63.2102  -11.7817   -8.8092 O   0  0  0  0  0  0  0  0  0  0  0  0
   60.9510  -12.4390   -7.7868 H   0  0  0  0  0  0  0  0  0  0  0  0
   63.0023  -10.8425  -11.4562 C   0  0  0  0  0  0  0  0  0  0  0  0
   64.1342   -9.9188  -11.5195 C   0  0  0  0  0  0  0  0  0  0  0  0
   65.1150   -9.9682  -10.5203 O   0  0  0  0  0  0  0  0  0  0  0  0
   64.2800   -9.0640  -12.4360 O   0  0  0  0  0  0  0  0  0  0  0  0
   65.9197  -10.5588  -10.7294 H   0  0  0  0  0  0  0  0  0  0  0  0
   61.6883   -7.3712   -7.1264 C   0  0  0  0  0  0  0  0  0  0  0  0
   61.8301   -6.4247   -8.2859 C   0  0  0  0  0  0  0  0  0  0  0  0
   63.2299   -5.9634   -8.5165 C   0  0  0  0  0  0  0  0  0  0  0  0
   57.3529   -4.3355   -9.5622 N   0  0  0  0  0  0  0  0  0  0  0  0
   55.9266   -4.1956   -9.4964 C   0  0  0  0  0  0  0  0  0  0  0  0
   55.2927   -4.4444  -10.5320 O   0  0  0  0  0  0  0  0  0  0  0  0
   57.8978   -4.1401   -8.7136 H   0  0  0  0  0  0  0  0  0  0  0  0
   55.2531   -3.7798   -8.2731 C   0  0  0  0  0  0  0  0  0  0  0  0
   56.1975   -3.9591   -7.0575 C   0  0  0  0  0  0  0  0  0  0  0  0
   56.0816   -5.4729   -6.8638 C   0  0  0  0  0  0  0  0  0  0  0  0
   54.7178   -5.8560   -7.4136 C   0  0  0  0  0  0  0  0  0  0  0  0
   54.1607   -4.5903   -7.8208 N   0  0  0  0  0  0  0  0  0  0  0  0
   52.7811   -4.2590   -7.7436 C   0  0  0  0  0  0  0  0  0  0  0  0
   52.4163   -3.1333   -8.1531 O   0  0  0  0  0  0  0  0  0  0  0  0
   51.7605   -5.1770   -7.1950 C   0  0  0  0  0  0  0  0  0  0  0  0
   52.0517   -6.5323   -7.6983 N   0  0  0  0  0  0  0  0  0  0  0  0
   51.5421   -6.7295   -8.5832 H   0  0  0  0  0  0  0  0  0  0  0  0
   53.0712   -6.6014   -7.9375 H   0  0  0  0  0  0  0  0  0  0  0  0
   51.7456   -5.2201   -5.6672 C   0  0  0  0  0  0  0  0  0  0  0  0
   50.5388   -4.5468   -5.1764 C   0  0  0  0  0  0  0  0  0  0  0  0
   49.9098   -4.9653   -4.0392 C   0  0  0  0  0  0  0  0  0  0  0  0
   48.7684   -4.2896   -3.6090 C   0  0  0  0  0  0  0  0  0  0  0  0
   48.2811   -3.2172   -4.3162 C   0  0  0  0  0  0  0  0  0  0  0  0
   48.9201   -2.7873   -5.4757 C   0  0  0  0  0  0  0  0  0  0  0  0
   50.0324   -3.4601   -5.8795 C   0  0  0  0  0  0  0  0  0  0  0  0
   57.9392   -3.7297  -11.8077 C   0  0  0  0  0  0  0  0  0  0  0  0
   57.2698   -4.1308  -13.0433 C   0  0  0  0  0  0  0  0  0  0  0  0
   57.5972   -3.3897  -14.1866 C   0  0  0  0  0  0  0  0  0  0  0  0
   57.0502   -3.7627  -15.3748 C   0  0  0  0  0  0  0  0  0  0  0  0
   56.2014   -4.8378  -15.4390 C   0  0  0  0  0  0  0  0  0  0  0  0
   55.8814   -5.5700  -14.2973 C   0  0  0  0  0  0  0  0  0  0  0  0
   56.4320   -5.1948  -13.1006 C   0  0  0  0  0  0  0  0  0  0  0  0
 21 22  1  0  0  0
 22 23  1  0  0  0
 22  6  1  0  0  0
  6  2  1  0  0  0
  2  3  1  0  0  0
  3  4  2  0  0  0
  3  1  1  0  0  0
  1 46  1  0  0  0
 46 47  1  0  0  0
 47 48  2  0  0  0
 48 49  1  0  0  0
 49 50  2  0  0  0
 50 51  1  0  0  0
 51 52  2  0  0  0
  1 24  1  0  0  0
 24 25  1  0  0  0
 25 26  2  0  0  0
 25 28  1  0  0  0
 28 29  1  0  0  0
 29 30  1  0  0  0
 30 31  1  0  0  0
 31 32  1  0  0  0
 32 33  1  0  0  0
 33 34  2  0  0  0
 33 35  1  0  0  0
 35 36  1  0  0  0
 35 39  1  0  0  0
 39 40  1  0  0  0
 40 41  2  0  0  0
 41 42  1  0  0  0
 42 43  2  0  0  0
 43 44  1  0  0  0
 44 45  2  0  0  0
  6  7  1  0  0  0
  7  8  2  0  0  0
  7  9  1  0  0  0
  9 11  1  0  0  0
 11 16  1  0  0  0
 16 17  1  0  0  0
 17 18  1  0  0  0
 17 19  2  0  0  0
 11 12  1  0  0  0
 12 13  1  0  0  0
 12 14  2  0  0  0
 52 47  1  0  0  0
 32 28  1  0  0  0
 45 40  1  0  0  0
  2  5  1  0  0  0
 24 27  1  0  0  0
 36 37  1  0  0  0
 36 38  1  0  0  0
  9 10  1  0  0  0
 18 20  1  0  0  0
 13 15  1  0  0  0
M  END
> <minimizedAffinity>
-8.10896

> <CNNscore>
0.1960606575

> <CNNaffinity>
6.7022185326

> <CNN_VS>
1.3140413761

> <CNNaffinity_variance>
0.1220958233

$$$$
[H]OC(=O)C([H])([H])[C@@]([H])(C(=O)O[H])N([H])C(=O)[C@@]([H])(N([H])C(=O)[C@@]([H])(N([H])C(=O)[C@@]1([H])N(C(=O)[C@@]([H])(N([H])[H])C([H])([H])c2c([H])c([H])c([H])c([H])c2[H])C([H])([H])C([H])([H])C1([H])[H])C([H])([H])c1c([H])c([H])c([H])c([H])c1[H])C([H])(C([H])([H])[H])C([H])([H])[H]


 52 54  0  0  0  0  0  0  0  0999 V2000
   58.1204   -4.9113  -10.0768 C   0  0  0  0  0  0  0  0  0  0  0  0
   60.0455   -6.0847   -8.7769 N   0  0  0  0  0  0  0  0  0  0  0  0
   59.2671   -5.7381   -9.8617 C   0  0  0  0  0  0  0  0  0  0  0  0
   59.6825   -6.3242  -10.9876 O   0  0  0  0  0  0  0  0  0  0  0  0
   59.8515   -5.7716   -7.8162 H   0  0  0  0  0  0  0  0  0  0  0  0
   61.2197   -6.9763   -8.8742 C   0  0  0  0  0  0  0  0  0  0  0  0
   61.2690   -7.8943   -7.7388 C   0  0  0  0  0  0  0  0  0  0  0  0
   61.0256   -7.3759   -6.5697 O   0  0  0  0  0  0  0  0  0  0  0  0
   61.5376   -9.2672   -7.7241 N   0  0  0  0  0  0  0  0  0  0  0  0
   61.7604   -9.8364   -8.5441 H   0  0  0  0  0  0  0  0  0  0  0  0
   61.5046  -10.0101   -6.4400 C   0  0  0  0  0  0  0  0  0  0  0  0
   62.8990  -10.2866   -6.0375 C   0  0  0  0  0  0  0  0  0  0  0  0
   63.9279   -9.9514   -6.8829 O   0  0  0  0  0  0  0  0  0  0  0  0
   63.1438  -10.8209   -4.9424 O   0  0  0  0  0  0  0  0  0  0  0  0
   64.8807  -10.1909   -6.7222 H   0  0  0  0  0  0  0  0  0  0  0  0
   60.7104  -11.2719   -6.6297 C   0  0  0  0  0  0  0  0  0  0  0  0
   61.2491  -12.2024   -7.6209 C   0  0  0  0  0  0  0  0  0  0  0  0
   61.2475  -11.8384   -8.9737 O   0  0  0  0  0  0  0  0  0  0  0  0
   61.7210  -13.3341   -7.3236 O   0  0  0  0  0  0  0  0  0  0  0  0
   62.1040  -11.3955   -9.3061 H   0  0  0  0  0  0  0  0  0  0  0  0
   63.3654   -5.9301   -8.1137 C   0  0  0  0  0  0  0  0  0  0  0  0
   62.4292   -6.2290   -9.2515 C   0  0  0  0  0  0  0  0  0  0  0  0
   63.1138   -6.7449  -10.4724 C   0  0  0  0  0  0  0  0  0  0  0  0
   57.4058   -4.5880   -8.8358 N   0  0  0  0  0  0  0  0  0  0  0  0
   55.9750   -4.5347   -8.7448 C   0  0  0  0  0  0  0  0  0  0  0  0
   55.3400   -4.7835   -9.7797 O   0  0  0  0  0  0  0  0  0  0  0  0
   57.9520   -4.3911   -7.9884 H   0  0  0  0  0  0  0  0  0  0  0  0
   55.2984   -4.2027   -7.4979 C   0  0  0  0  0  0  0  0  0  0  0  0
   56.3038   -4.2419   -6.3191 C   0  0  0  0  0  0  0  0  0  0  0  0
   56.4014   -5.7556   -6.1154 C   0  0  0  0  0  0  0  0  0  0  0  0
   55.0821   -6.3244   -6.6104 C   0  0  0  0  0  0  0  0  0  0  0  0
   54.3437   -5.1493   -7.0004 N   0  0  0  0  0  0  0  0  0  0  0  0
   52.9359   -5.0067   -6.8710 C   0  0  0  0  0  0  0  0  0  0  0  0
   52.4067   -3.9444   -7.2702 O   0  0  0  0  0  0  0  0  0  0  0  0
   52.0705   -6.0493   -6.2797 C   0  0  0  0  0  0  0  0  0  0  0  0
   52.1456   -5.9228   -4.8123 N   0  0  0  0  0  0  0  0  0  0  0  0
   52.8941   -6.5250   -4.4141 H   0  0  0  0  0  0  0  0  0  0  0  0
   52.4114   -4.9387   -4.5626 H   0  0  0  0  0  0  0  0  0  0  0  0
   50.6064   -5.9302   -6.7022 C   0  0  0  0  0  0  0  0  0  0  0  0
   49.9757   -4.8361   -5.9568 C   0  0  0  0  0  0  0  0  0  0  0  0
   49.6635   -3.6548   -6.5658 C   0  0  0  0  0  0  0  0  0  0  0  0
   49.0592   -2.6457   -5.8166 C   0  0  0  0  0  0  0  0  0  0  0  0
   48.7799   -2.8340   -4.4848 C   0  0  0  0  0  0  0  0  0  0  0  0
   49.0962   -4.0374   -3.8606 C   0  0  0  0  0  0  0  0  0  0  0  0
   49.6859   -5.0098   -4.6086 C   0  0  0  0  0  0  0  0  0  0  0  0
   58.1282   -3.7700  -10.9716 C   0  0  0  0  0  0  0  0  0  0  0  0
   57.5902   -3.9875  -12.3129 C   0  0  0  0  0  0  0  0  0  0  0  0
   58.3537   -3.4753  -13.3704 C   0  0  0  0  0  0  0  0  0  0  0  0
   57.9297   -3.7061  -14.6420 C   0  0  0  0  0  0  0  0  0  0  0  0
   56.7831   -4.4227  -14.8702 C   0  0  0  0  0  0  0  0  0  0  0  0
   56.0299   -4.9293  -13.8128 C   0  0  0  0  0  0  0  0  0  0  0  0
   56.4564   -4.6972  -12.5321 C   0  0  0  0  0  0  0  0  0  0  0  0
 21 22  1  0  0  0
 22 23  1  0  0  0
 22  6  1  0  0  0
  6  2  1  0  0  0
  2  3  1  0  0  0
  3  4  2  0  0  0
  3  1  1  0  0  0
  1 46  1  0  0  0
 46 47  1  0  0  0
 47 48  2  0  0  0
 48 49  1  0  0  0
 49 50  2  0  0  0
 50 51  1  0  0  0
 51 52  2  0  0  0
  1 24  1  0  0  0
 24 25  1  0  0  0
 25 26  2  0  0  0
 25 28  1  0  0  0
 28 29  1  0  0  0
 29 30  1  0  0  0
 30 31  1  0  0  0
 31 32  1  0  0  0
 32 33  1  0  0  0
 33 34  2  0  0  0
 33 35  1  0  0  0
 35 36  1  0  0  0
 35 39  1  0  0  0
 39 40  1  0  0  0
 40 41  2  0  0  0
 41 42  1  0  0  0
 42 43  2  0  0  0
 43 44  1  0  0  0
 44 45  2  0  0  0
  6  7  1  0  0  0
  7  8  2  0  0  0
  7  9  1  0  0  0
  9 11  1  0  0  0
 11 16  1  0  0  0
 16 17  1  0  0  0
 17 18  1  0  0  0
 17 19  2  0  0  0
 11 12  1  0  0  0
 12 13  1  0  0  0
 12 14  2  0  0  0
 52 47  1  0  0  0
 32 28  1  0  0  0
 45 40  1  0  0  0
  2  5  1  0  0  0
 24 27  1  0  0  0
 36 37  1  0  0  0
 36 38  1  0  0  0
  9 10  1  0  0  0
 18 20  1  0  0  0
 13 15  1  0  0  0
M  END
> <minimizedAffinity>
-7.29632

> <CNNscore>
0.1846138835

> <CNNaffinity>
6.7952589989

> <CNN_VS>
1.2544991970

> <CNNaffinity_variance>
0.0967013985

$$$$
[H]OC(=O)C([H])([H])[C@@]([H])(C(=O)O[H])N([H])C(=O)[C@@]([H])(N([H])C(=O)[C@@]([H])(N([H])C(=O)[C@@]1([H])N(C(=O)[C@@]([H])(N([H])[H])C([H])([H])c2c([H])c([H])c([H])c([H])c2[H])C([H])([H])C([H])([H])C1([H])[H])C([H])([H])c1c([H])c([H])c([H])c([H])c1[H])C([H])(C([H])([H])[H])C([H])([H])[H]


 52 54  0  0  0  0  0  0  0  0999 V2000
   57.9304   -5.4704   -8.7825 C   0  0  0  0  0  0  0  0  0  0  0  0
   59.9712   -6.6944   -9.8358 N   0  0  0  0  0  0  0  0  0  0  0  0
   59.2595   -5.9870   -8.8893 C   0  0  0  0  0  0  0  0  0  0  0  0
   59.9945   -5.7105   -7.8091 O   0  0  0  0  0  0  0  0  0  0  0  0
   59.5890   -6.9559  -10.7546 H   0  0  0  0  0  0  0  0  0  0  0  0
   61.3739   -7.1178   -9.6452 C   0  0  0  0  0  0  0  0  0  0  0  0
   62.2236   -6.5913  -10.7107 C   0  0  0  0  0  0  0  0  0  0  0  0
   63.4015   -6.1696  -10.3510 O   0  0  0  0  0  0  0  0  0  0  0  0
   61.9555   -6.4771  -12.0791 N   0  0  0  0  0  0  0  0  0  0  0  0
   61.0812   -6.7466  -12.5363 H   0  0  0  0  0  0  0  0  0  0  0  0
   62.9925   -5.9312  -12.9893 C   0  0  0  0  0  0  0  0  0  0  0  0
   62.3593   -4.8969  -13.8332 C   0  0  0  0  0  0  0  0  0  0  0  0
   61.9311   -5.2216  -15.0970 O   0  0  0  0  0  0  0  0  0  0  0  0
   62.2149   -3.7385  -13.4071 O   0  0  0  0  0  0  0  0  0  0  0  0
   61.5833   -4.5595  -15.7540 H   0  0  0  0  0  0  0  0  0  0  0  0
   63.5619   -7.0567  -13.8065 C   0  0  0  0  0  0  0  0  0  0  0  0
   64.4537   -7.9615  -13.0824 C   0  0  0  0  0  0  0  0  0  0  0  0
   65.4660   -7.4251  -12.2762 O   0  0  0  0  0  0  0  0  0  0  0  0
   64.3641   -9.2185  -13.1444 O   0  0  0  0  0  0  0  0  0  0  0  0
   65.2201   -7.3002  -11.2943 H   0  0  0  0  0  0  0  0  0  0  0  0
   61.7957   -9.4572  -10.4366 C   0  0  0  0  0  0  0  0  0  0  0  0
   61.4592   -8.5430   -9.2915 C   0  0  0  0  0  0  0  0  0  0  0  0
   62.2400   -8.8220   -8.0513 C   0  0  0  0  0  0  0  0  0  0  0  0
   57.3887   -5.5586   -7.4209 N   0  0  0  0  0  0  0  0  0  0  0  0
   56.0024   -5.3547   -7.1126 C   0  0  0  0  0  0  0  0  0  0  0  0
   55.2506   -5.0986   -8.0641 O   0  0  0  0  0  0  0  0  0  0  0  0
   58.0288   -5.7780   -6.6480 H   0  0  0  0  0  0  0  0  0  0  0  0
   55.5000   -5.4423   -5.7478 C   0  0  0  0  0  0  0  0  0  0  0  0
   56.3960   -6.3892   -4.9098 C   0  0  0  0  0  0  0  0  0  0  0  0
   55.8844   -7.7403   -5.4152 C   0  0  0  0  0  0  0  0  0  0  0  0
   54.4528   -7.4980   -5.8632 C   0  0  0  0  0  0  0  0  0  0  0  0
   54.2437   -6.1052   -5.5552 N   0  0  0  0  0  0  0  0  0  0  0  0
   53.0061   -5.5557   -5.1247 C   0  0  0  0  0  0  0  0  0  0  0  0
   52.9446   -4.3233   -4.9123 O   0  0  0  0  0  0  0  0  0  0  0  0
   51.7929   -6.3722   -4.9080 C   0  0  0  0  0  0  0  0  0  0  0  0
   51.1342   -5.8893   -3.6800 N   0  0  0  0  0  0  0  0  0  0  0  0
   51.4580   -6.4119   -2.8413 H   0  0  0  0  0  0  0  0  0  0  0  0
   51.4048   -4.8893   -3.5122 H   0  0  0  0  0  0  0  0  0  0  0  0
   50.7928   -6.2858   -6.0606 C   0  0  0  0  0  0  0  0  0  0  0  0
   50.5037   -4.8764   -6.3451 C   0  0  0  0  0  0  0  0  0  0  0  0
   49.5674   -4.1890   -5.6277 C   0  0  0  0  0  0  0  0  0  0  0  0
   49.3315   -2.8486   -5.9314 C   0  0  0  0  0  0  0  0  0  0  0  0
   50.0298   -2.2250   -6.9369 C   0  0  0  0  0  0  0  0  0  0  0  0
   50.9856   -2.9226   -7.6700 C   0  0  0  0  0  0  0  0  0  0  0  0
   51.2011   -4.2301   -7.3588 C   0  0  0  0  0  0  0  0  0  0  0  0
   57.5110   -4.2362   -9.4181 C   0  0  0  0  0  0  0  0  0  0  0  0
   57.3929   -4.2584  -10.8746 C   0  0  0  0  0  0  0  0  0  0  0  0
   56.0964   -4.4156  -11.3825 C   0  0  0  0  0  0  0  0  0  0  0  0
   55.9240   -4.3791  -12.7312 C   0  0  0  0  0  0  0  0  0  0  0  0
   56.9990   -4.1930  -13.5619 C   0  0  0  0  0  0  0  0  0  0  0  0
   58.2852   -4.0368  -13.0485 C   0  0  0  0  0  0  0  0  0  0  0  0
   58.4594   -4.0735  -11.6905 C   0  0  0  0  0  0  0  0  0  0  0  0
 21 22  1  0  0  0
 22 23  1  0  0  0
 22  6  1  0  0  0
  6  2  1  0  0  0
  2  3  1  0  0  0
  3  4  2  0  0  0
  3  1  1  0  0  0
  1 46  1  0  0  0
 46 47  1  0  0  0
 47 48  2  0  0  0
 48 49  1  0  0  0
 49 50  2  0  0  0
 50 51  1  0  0  0
 51 52  2  0  0  0
  1 24  1  0  0  0
 24 25  1  0  0  0
 25 26  2  0  0  0
 25 28  1  0  0  0
 28 29  1  0  0  0
 29 30  1  0  0  0
 30 31  1  0  0  0
 31 32  1  0  0  0
 32 33  1  0  0  0
 33 34  2  0  0  0
 33 35  1  0  0  0
 35 36  1  0  0  0
 35 39  1  0  0  0
 39 40  1  0  0  0
 40 41  2  0  0  0
 41 42  1  0  0  0
 42 43  2  0  0  0
 43 44  1  0  0  0
 44 45  2  0  0  0
  6  7  1  0  0  0
  7  8  2  0  0  0
  7  9  1  0  0  0
  9 11  1  0  0  0
 11 16  1  0  0  0
 16 17  1  0  0  0
 17 18  1  0  0  0
 17 19  2  0  0  0
 11 12  1  0  0  0
 12 13  1  0  0  0
 12 14  2  0  0  0
 52 47  1  0  0  0
 32 28  1  0  0  0
 45 40  1  0  0  0
  2  5  1  0  0  0
 24 27  1  0  0  0
 36 37  1  0  0  0
 36 38  1  0  0  0
  9 10  1  0  0  0
 18 20  1  0  0  0
 13 15  1  0  0  0
M  END
> <minimizedAffinity>
-5.55871

> <CNNscore>
0.1695269048

> <CNNaffinity>
6.4977669716

> <CNN_VS>
1.1015462875

> <CNNaffinity_variance>
0.1188613176

$$$$
[H]c1nc2c(c([H])c1[H])c([H])c([H])n2-c1c([H])c([H])c(OC([H])([H])[H])c([H])c1[H]


 17 19  0  0  0  0  0  0  0  0999 V2000
   53.5430   -4.8959   -7.3874 N   0  0  0  0  0  0  0  0  0  0  0  0
   53.5185   -5.8914   -6.4676 C   0  0  0  0  0  0  0  0  0  0  0  0
   52.3642   -5.8068   -5.7169 C   0  0  0  0  0  0  0  0  0  0  0  0
   51.6783   -4.7186   -6.2117 C   0  0  0  0  0  0  0  0  0  0  0  0
   50.4718   -4.1173   -5.8919 C   0  0  0  0  0  0  0  0  0  0  0  0
   50.0509   -3.0049   -6.5985 C   0  0  0  0  0  0  0  0  0  0  0  0
   50.8045   -2.4703   -7.6233 C   0  0  0  0  0  0  0  0  0  0  0  0
   51.9683   -3.0744   -7.9099 N   0  0  0  0  0  0  0  0  0  0  0  0
   52.4130   -4.1673   -7.2379 C   0  0  0  0  0  0  0  0  0  0  0  0
   56.5891   -4.1430  -10.2141 C   0  0  0  0  0  0  0  0  0  0  0  0
   55.2739   -3.8590  -10.5072 C   0  0  0  0  0  0  0  0  0  0  0  0
   54.2593   -4.1038   -9.5807 C   0  0  0  0  0  0  0  0  0  0  0  0
   54.5619   -4.6358   -8.3536 C   0  0  0  0  0  0  0  0  0  0  0  0
   55.8880   -4.9270   -8.0460 C   0  0  0  0  0  0  0  0  0  0  0  0
   56.8678   -4.6762   -8.9767 C   0  0  0  0  0  0  0  0  0  0  0  0
   57.4423   -4.1106  -12.4838 C   0  0  0  0  0  0  0  0  0  0  0  0
   57.6291   -3.9189  -11.0972 O   0  0  0  0  0  0  0  0  0  0  0  0
 16 17  1  0  0  0
 17 10  1  0  0  0
 10 11  2  0  0  0
 11 12  1  0  0  0
 12 13  2  0  0  0
 13 14  1  0  0  0
 14 15  2  0  0  0
 13  1  1  0  0  0
  1  2  1  0  0  0
  2  3  2  0  0  0
  3  4  1  0  0  0
  4  5  2  0  0  0
  5  6  1  0  0  0
  6  7  2  0  0  0
  7  8  1  0  0  0
  8  9  2  0  0  0
 15 10  1  0  0  0
  9  1  1  0  0  0
  9  4  1  0  0  0
M  END
> <minimizedAffinity>
-8.06408

> <CNNscore>
0.6910658479

> <CNNaffinity>
5.3966474533

> <CNN_VS>
3.7294387817

> <CNNaffinity_variance>
0.1116162315

$$$$
[H]c1nc2c(c([H])c1[H])c([H])c([H])n2-c1c([H])c([H])c(OC([H])([H])[H])c([H])c1[H]


 17 19  0  0  0  0  0  0  0  0999 V2000
   55.4910   -4.3715   -8.4943 N   0  0  0  0  0  0  0  0  0  0  0  0
   56.3969   -4.7997   -7.5814 C   0  0  0  0  0  0  0  0  0  0  0  0
   57.5869   -5.1035   -8.2096 C   0  0  0  0  0  0  0  0  0  0  0  0
   57.3774   -4.8450   -9.5470 C   0  0  0  0  0  0  0  0  0  0  0  0
   58.1683   -4.9457  -10.6800 C   0  0  0  0  0  0  0  0  0  0  0  0
   57.6470   -4.5992  -11.9137 C   0  0  0  0  0  0  0  0  0  0  0  0
   56.3491   -4.1513  -12.0515 C   0  0  0  0  0  0  0  0  0  0  0  0
   55.6076   -4.0644  -10.9362 N   0  0  0  0  0  0  0  0  0  0  0  0
   56.0856   -4.3958   -9.7092 C   0  0  0  0  0  0  0  0  0  0  0  0
   51.5045   -3.1964   -7.7440 C   0  0  0  0  0  0  0  0  0  0  0  0
   52.2965   -2.4779   -8.6117 C   0  0  0  0  0  0  0  0  0  0  0  0
   53.6151   -2.8572   -8.8670 C   0  0  0  0  0  0  0  0  0  0  0  0
   54.1448   -3.9618   -8.2507 C   0  0  0  0  0  0  0  0  0  0  0  0
   53.3537   -4.6959   -7.3715 C   0  0  0  0  0  0  0  0  0  0  0  0
   52.0582   -4.3005   -7.1379 C   0  0  0  0  0  0  0  0  0  0  0  0
   49.6482   -3.1350   -6.1850 C   0  0  0  0  0  0  0  0  0  0  0  0
   50.1938   -2.8616   -7.4585 O   0  0  0  0  0  0  0  0  0  0  0  0
 16 17  1  0  0  0
 17 10  1  0  0  0
 10 11  2  0  0  0
 11 12  1  0  0  0
 12 13  2  0  0  0
 13 14  1  0  0  0
 14 15  2  0  0  0
 13  1  1  0  0  0
  1  2  1  0  0  0
  2  3  2  0  0  0
  3  4  1  0  0  0
  4  5  2  0  0  0
  5  6  1  0  0  0
  6  7  2  0  0  0
  7  8  1  0  0  0
  8  9  2  0  0  0
 15 10  1  0  0  0
  9  1  1  0  0  0
  9  4  1  0  0  0
M  END
> <minimizedAffinity>
-8.45086

> <CNNscore>
0.6170031428

> <CNNaffinity>
5.0879173279

> <CNN_VS>
3.1392610073

> <CNNaffinity_variance>
0.2885843515

$$$$
[H]c1nc2c(c([H])c1[H])c([H])c([H])n2-c1c([H])c([H])c(OC([H])([H])[H])c([H])c1[H]


 17 19  0  0  0  0  0  0  0  0999 V2000
   63.0090   -4.8547  -13.9991 N   0  0  0  0  0  0  0  0  0  0  0  0
   62.0112   -4.4937  -14.8427 C   0  0  0  0  0  0  0  0  0  0  0  0
   62.2258   -3.2098  -15.2993 C   0  0  0  0  0  0  0  0  0  0  0  0
   63.3966   -2.7943  -14.7028 C   0  0  0  0  0  0  0  0  0  0  0  0
   64.1364   -1.6239  -14.7511 C   0  0  0  0  0  0  0  0  0  0  0  0
   65.3017   -1.5176  -14.0132 C   0  0  0  0  0  0  0  0  0  0  0  0
   65.7546   -2.5534  -13.2218 C   0  0  0  0  0  0  0  0  0  0  0  0
   65.0167   -3.6742  -13.1953 N   0  0  0  0  0  0  0  0  0  0  0  0
   63.8682   -3.8139  -13.9061 C   0  0  0  0  0  0  0  0  0  0  0  0
   63.4228   -8.5191  -11.9407 C   0  0  0  0  0  0  0  0  0  0  0  0
   63.8815   -8.3838  -13.2321 C   0  0  0  0  0  0  0  0  0  0  0  0
   63.7499   -7.1776  -13.9216 C   0  0  0  0  0  0  0  0  0  0  0  0
   63.1561   -6.1001  -13.3160 C   0  0  0  0  0  0  0  0  0  0  0  0
   62.6886   -6.2250  -12.0108 C   0  0  0  0  0  0  0  0  0  0  0  0
   62.8307   -7.4243  -11.3544 C   0  0  0  0  0  0  0  0  0  0  0  0
   62.4168  -10.1985  -10.5097 C   0  0  0  0  0  0  0  0  0  0  0  0
   63.5296   -9.6918  -11.2162 O   0  0  0  0  0  0  0  0  0  0  0  0
 16 17  1  0  0  0
 17 10  1  0  0  0
 10 11  2  0  0  0
 11 12  1  0  0  0
 12 13  2  0  0  0
 13 14  1  0  0  0
 14 15  2  0  0  0
 13  1  1  0  0  0
  1  2  1  0  0  0
  2  3  2  0  0  0
  3  4  1  0  0  0
  4  5  2  0  0  0
  5  6  1  0  0  0
  6  7  2  0  0  0
  7  8  1  0  0  0
  8  9  2  0  0  0
 15 10  1  0  0  0
  9  1  1  0  0  0
  9  4  1  0  0  0
M  END
> <minimizedAffinity>
-2.31719

> <CNNscore>
0.6013992429

> <CNNaffinity>
3.5953643322

> <CNN_VS>
2.1622493267

> <CNNaffinity_variance>
0.1000202075

$$$$
[H]c1nc2c(c([H])c1[H])c([H])c([H])n2-c1c([H])c([H])c(OC([H])([H])[H])c([H])c1[H]


 17 19  0  0  0  0  0  0  0  0999 V2000
   52.7658   -4.8190   -6.8830 N   0  0  0  0  0  0  0  0  0  0  0  0
   52.6515   -5.8457   -6.0053 C   0  0  0  0  0  0  0  0  0  0  0  0
   51.4687   -5.7331   -5.3045 C   0  0  0  0  0  0  0  0  0  0  0  0
   50.8585   -4.5951   -5.7862 C   0  0  0  0  0  0  0  0  0  0  0  0
   49.6679   -3.9481   -5.4974 C   0  0  0  0  0  0  0  0  0  0  0  0
   49.3332   -2.7910   -6.1777 C   0  0  0  0  0  0  0  0  0  0  0  0
   50.1582   -2.2558   -7.1457 C   0  0  0  0  0  0  0  0  0  0  0  0
   51.3045   -2.9047   -7.4033 N   0  0  0  0  0  0  0  0  0  0  0  0
   51.6654   -4.0423   -6.7558 C   0  0  0  0  0  0  0  0  0  0  0  0
   55.9108   -4.0797   -9.6029 C   0  0  0  0  0  0  0  0  0  0  0  0
   56.1778   -4.4951   -8.3174 C   0  0  0  0  0  0  0  0  0  0  0  0
   55.1463   -4.7423   -7.4104 C   0  0  0  0  0  0  0  0  0  0  0  0
   53.8399   -4.5730   -7.7914 C   0  0  0  0  0  0  0  0  0  0  0  0
   53.5578   -4.1534   -9.0883 C   0  0  0  0  0  0  0  0  0  0  0  0
   54.5925   -3.9169   -9.9617 C   0  0  0  0  0  0  0  0  0  0  0  0
   56.6315   -3.9762  -11.9160 C   0  0  0  0  0  0  0  0  0  0  0  0
   56.8966   -3.8220  -10.5375 O   0  0  0  0  0  0  0  0  0  0  0  0
 16 17  1  0  0  0
 17 10  1  0  0  0
 10 11  2  0  0  0
 11 12  1  0  0  0
 12 13  2  0  0  0
 13 14  1  0  0  0
 14 15  2  0  0  0
 13  1  1  0  0  0
  1  2  1  0  0  0
  2  3  2  0  0  0
  3  4  1  0  0  0
  4  5  2  0  0  0
  5  6  1  0  0  0
  6  7  2  0  0  0
  7  8  1  0  0  0
  8  9  2  0  0  0
 15 10  1  0  0  0
  9  1  1  0  0  0
  9  4  1  0  0  0
M  END
> <minimizedAffinity>
-8.48924

> <CNNscore>
0.5948221087

> <CNNaffinity>
5.4275178909

> <CNN_VS>
3.2284076214

> <CNNaffinity_variance>
0.1950076073

$$$$
[H]c1nc2c(c([H])c1[H])c([H])c([H])n2-c1c([H])c([H])c(OC([H])([H])[H])c([H])c1[H]


 17 19  0  0  0  0  0  0  0  0999 V2000
   55.5700   -4.6549   -8.3119 N   0  0  0  0  0  0  0  0  0  0  0  0
   56.4959   -5.0925   -7.4239 C   0  0  0  0  0  0  0  0  0  0  0  0
   57.7038   -5.2828   -8.0624 C   0  0  0  0  0  0  0  0  0  0  0  0
   57.4845   -4.9445   -9.3803 C   0  0  0  0  0  0  0  0  0  0  0  0
   58.2840   -4.9204  -10.5115 C   0  0  0  0  0  0  0  0  0  0  0  0
   57.7481   -4.5194  -11.7222 C   0  0  0  0  0  0  0  0  0  0  0  0
   56.4268   -4.1386  -11.8386 C   0  0  0  0  0  0  0  0  0  0  0  0
   55.6774   -4.1724  -10.7257 N   0  0  0  0  0  0  0  0  0  0  0  0
   56.1694   -4.5603   -9.5210 C   0  0  0  0  0  0  0  0  0  0  0  0
   51.5269   -3.6885   -7.5665 C   0  0  0  0  0  0  0  0  0  0  0  0
   52.0899   -4.8207   -7.0212 C   0  0  0  0  0  0  0  0  0  0  0  0
   53.4249   -5.1496   -7.2609 C   0  0  0  0  0  0  0  0  0  0  0  0
   54.2014   -4.3413   -8.0508 C   0  0  0  0  0  0  0  0  0  0  0  0
   53.6432   -3.1941   -8.6076 C   0  0  0  0  0  0  0  0  0  0  0  0
   52.3259   -2.8934   -8.3555 C   0  0  0  0  0  0  0  0  0  0  0  0
   49.7521   -3.0102   -6.0597 C   0  0  0  0  0  0  0  0  0  0  0  0
   50.2106   -3.3199   -7.3590 O   0  0  0  0  0  0  0  0  0  0  0  0
 16 17  1  0  0  0
 17 10  1  0  0  0
 10 11  2  0  0  0
 11 12  1  0  0  0
 12 13  2  0  0  0
 13 14  1  0  0  0
 14 15  2  0  0  0
 13  1  1  0  0  0
  1  2  1  0  0  0
  2  3  2  0  0  0
  3  4  1  0  0  0
  4  5  2  0  0  0
  5  6  1  0  0  0
  6  7  2  0  0  0
  7  8  1  0  0  0
  8  9  2  0  0  0
 15 10  1  0  0  0
  9  1  1  0  0  0
  9  4  1  0  0  0
M  END
> <minimizedAffinity>
-8.11287

> <CNNscore>
0.5877526999

> <CNNaffinity>
5.1520023346

> <CNN_VS>
3.0281033516

> <CNNaffinity_variance>
0.1929028481

$$$$
[H]c1nc2c(c([H])c1[H])c([H])c([H])n2-c1c([H])c([H])c(OC([H])([H])[H])c([H])c1[H]


 17 19  0  0  0  0  0  0  0  0999 V2000
   53.0474   -3.5210   -8.2020 N   0  0  0  0  0  0  0  0  0  0  0  0
   52.3049   -2.4601   -8.6028 C   0  0  0  0  0  0  0  0  0  0  0  0
   51.1190   -2.4258   -7.8988 C   0  0  0  0  0  0  0  0  0  0  0  0
   51.1611   -3.5089   -7.0476 C   0  0  0  0  0  0  0  0  0  0  0  0
   50.2905   -4.0184   -6.0979 C   0  0  0  0  0  0  0  0  0  0  0  0
   50.6361   -5.1558   -5.3902 C   0  0  0  0  0  0  0  0  0  0  0  0
   51.8347   -5.8053   -5.6039 C   0  0  0  0  0  0  0  0  0  0  0  0
   52.6570   -5.2883   -6.5301 N   0  0  0  0  0  0  0  0  0  0  0  0
   52.3511   -4.1741   -7.2434 C   0  0  0  0  0  0  0  0  0  0  0  0
   56.8403   -4.6563   -9.6718 C   0  0  0  0  0  0  0  0  0  0  0  0
   56.5890   -4.6380   -8.3180 C   0  0  0  0  0  0  0  0  0  0  0  0
   55.3394   -4.2645   -7.8214 C   0  0  0  0  0  0  0  0  0  0  0  0
   54.3350   -3.9072   -8.6839 C   0  0  0  0  0  0  0  0  0  0  0  0
   54.5774   -3.9218  -10.0546 C   0  0  0  0  0  0  0  0  0  0  0  0
   55.8171   -4.2937  -10.5172 C   0  0  0  0  0  0  0  0  0  0  0  0
   58.9832   -5.7701   -9.4529 C   0  0  0  0  0  0  0  0  0  0  0  0
   58.0602   -5.0184  -10.2126 O   0  0  0  0  0  0  0  0  0  0  0  0
 16 17  1  0  0  0
 17 10  1  0  0  0
 10 11  2  0  0  0
 11 12  1  0  0  0
 12 13  2  0  0  0
 13 14  1  0  0  0
 14 15  2  0  0  0
 13  1  1  0  0  0
  1  2  1  0  0  0
  2  3  2  0  0  0
  3  4  1  0  0  0
  4  5  2  0  0  0
  5  6  1  0  0  0
  6  7  2  0  0  0
  7  8  1  0  0  0
  8  9  2  0  0  0
 15 10  1  0  0  0
  9  1  1  0  0  0
  9  4  1  0  0  0
M  END
> <minimizedAffinity>
-8.42105

> <CNNscore>
0.5548723936

> <CNNaffinity>
5.2925410271

> <CNN_VS>
2.9366848469

> <CNNaffinity_variance>
0.1571079195

$$$$
[H]c1nc2c(c([H])c1[H])c([H])c([H])n2-c1c([H])c([H])c(OC([H])([H])[H])c([H])c1[H]


 17 19  0  0  0  0  0  0  0  0999 V2000
   55.0169   -4.1344   -9.7546 N   0  0  0  0  0  0  0  0  0  0  0  0
   55.1148   -3.9055  -11.0871 C   0  0  0  0  0  0  0  0  0  0  0  0
   56.3840   -4.2228  -11.5247 C   0  0  0  0  0  0  0  0  0  0  0  0
   57.0644   -4.6567  -10.4074 C   0  0  0  0  0  0  0  0  0  0  0  0
   58.3545   -5.1096  -10.1842 C   0  0  0  0  0  0  0  0  0  0  0  0
   58.7404   -5.4808   -8.9086 C   0  0  0  0  0  0  0  0  0  0  0  0
   57.8698   -5.4131   -7.8402 C   0  0  0  0  0  0  0  0  0  0  0  0
   56.6271   -4.9705   -8.0875 N   0  0  0  0  0  0  0  0  0  0  0  0
   56.2135   -4.5977   -9.3260 C   0  0  0  0  0  0  0  0  0  0  0  0
   51.6424   -3.5807   -7.2763 C   0  0  0  0  0  0  0  0  0  0  0  0
   51.9628   -2.6539   -8.2431 C   0  0  0  0  0  0  0  0  0  0  0  0
   53.0755   -2.8268   -9.0675 C   0  0  0  0  0  0  0  0  0  0  0  0
   53.8727   -3.9333   -8.9241 C   0  0  0  0  0  0  0  0  0  0  0  0
   53.5588   -4.8770   -7.9502 C   0  0  0  0  0  0  0  0  0  0  0  0
   52.4572   -4.6824   -7.1515 C   0  0  0  0  0  0  0  0  0  0  0  0
   49.5684   -2.4724   -6.6844 C   0  0  0  0  0  0  0  0  0  0  0  0
   50.5518   -3.4548   -6.4358 O   0  0  0  0  0  0  0  0  0  0  0  0
 16 17  1  0  0  0
 17 10  1  0  0  0
 10 11  2  0  0  0
 11 12  1  0  0  0
 12 13  2  0  0  0
 13 14  1  0  0  0
 14 15  2  0  0  0
 13  1  1  0  0  0
  1  2  1  0  0  0
  2  3  2  0  0  0
  3  4  1  0  0  0
  4  5  2  0  0  0
  5  6  1  0  0  0
  6  7  2  0  0  0
  7  8  1  0  0  0
  8  9  2  0  0  0
 15 10  1  0  0  0
  9  1  1  0  0  0
  9  4  1  0  0  0
M  END
> <minimizedAffinity>
-7.74760

> <CNNscore>
0.5524698496

> <CNNaffinity>
5.1452174187

> <CNN_VS>
2.8425774574

> <CNNaffinity_variance>
0.2448241711

$$$$
[H]c1nc2c(c([H])c1[H])c([H])c([H])n2-c1c([H])c([H])c(OC([H])([H])[H])c([H])c1[H]


 17 19  0  0  0  0  0  0  0  0999 V2000
   53.0284   -3.5227   -8.2118 N   0  0  0  0  0  0  0  0  0  0  0  0
   52.2620   -2.4710   -8.5912 C   0  0  0  0  0  0  0  0  0  0  0  0
   51.0965   -2.4507   -7.8536 C   0  0  0  0  0  0  0  0  0  0  0  0
   51.1759   -3.5329   -7.0039 C   0  0  0  0  0  0  0  0  0  0  0  0
   50.3391   -4.0525   -6.0297 C   0  0  0  0  0  0  0  0  0  0  0  0
   50.7184   -5.1853   -5.3321 C   0  0  0  0  0  0  0  0  0  0  0  0
   51.9181   -5.8204   -5.5800 C   0  0  0  0  0  0  0  0  0  0  0  0
   52.7074   -5.2939   -6.5293 N   0  0  0  0  0  0  0  0  0  0  0  0
   52.3677   -4.1838   -7.2337 C   0  0  0  0  0  0  0  0  0  0  0  0
   56.8235   -4.6251   -9.7010 C   0  0  0  0  0  0  0  0  0  0  0  0
   55.8002   -4.2963  -10.5619 C   0  0  0  0  0  0  0  0  0  0  0  0
   54.5422   -3.9306  -10.0807 C   0  0  0  0  0  0  0  0  0  0  0  0
   54.3063   -3.8935   -8.7304 C   0  0  0  0  0  0  0  0  0  0  0  0
   55.3331   -4.2238   -7.8504 C   0  0  0  0  0  0  0  0  0  0  0  0
   56.5626   -4.5805   -8.3508 C   0  0  0  0  0  0  0  0  0  0  0  0
   58.9411   -5.7282   -9.2778 C   0  0  0  0  0  0  0  0  0  0  0  0
   58.0859   -4.9934  -10.1280 O   0  0  0  0  0  0  0  0  0  0  0  0
 16 17  1  0  0  0
 17 10  1  0  0  0
 10 11  2  0  0  0
 11 12  1  0  0  0
 12 13  2  0  0  0
 13 14  1  0  0  0
 14 15  2  0  0  0
 13  1  1  0  0  0
  1  2  1  0  0  0
  2  3  2  0  0  0
  3  4  1  0  0  0
  4  5  2  0  0  0
  5  6  1  0  0  0
  6  7  2  0  0  0
  7  8  1  0  0  0
  8  9  2  0  0  0
 15 10  1  0  0  0
  9  1  1  0  0  0
  9  4  1  0  0  0
M  END
> <minimizedAffinity>
-8.37846

> <CNNscore>
0.5447562337

> <CNNaffinity>
5.3034677505

> <CNN_VS>
2.8890972137

> <CNNaffinity_variance>
0.1452500075

$$$$
[H]c1nc2c(c([H])c1[H])c([H])c([H])n2-c1c([H])c([H])c(OC([H])([H])[H])c([H])c1[H]


 17 19  0  0  0  0  0  0  0  0999 V2000
   59.1742   -4.9244  -11.4782 N   0  0  0  0  0  0  0  0  0  0  0  0
   60.2152   -5.5235  -10.8497 C   0  0  0  0  0  0  0  0  0  0  0  0
   61.3507   -5.4249  -11.6268 C   0  0  0  0  0  0  0  0  0  0  0  0
   60.9671   -4.7405  -12.7599 C   0  0  0  0  0  0  0  0  0  0  0  0
   61.6309   -4.3282  -13.9038 C   0  0  0  0  0  0  0  0  0  0  0  0
   60.9422   -3.6402  -14.8867 C   0  0  0  0  0  0  0  0  0  0  0  0
   59.5992   -3.3489  -14.7608 C   0  0  0  0  0  0  0  0  0  0  0  0
   58.9834   -3.7612  -13.6418 N   0  0  0  0  0  0  0  0  0  0  0  0
   59.6273   -4.4385  -12.6566 C   0  0  0  0  0  0  0  0  0  0  0  0
   55.1845   -4.5894  -10.1344 C   0  0  0  0  0  0  0  0  0  0  0  0
   56.2324   -4.5330   -9.2428 C   0  0  0  0  0  0  0  0  0  0  0  0
   57.5546   -4.6426   -9.6759 C   0  0  0  0  0  0  0  0  0  0  0  0
   57.8304   -4.8097  -11.0087 C   0  0  0  0  0  0  0  0  0  0  0  0
   56.7792   -4.8682  -11.9194 C   0  0  0  0  0  0  0  0  0  0  0  0
   55.4863   -4.7576  -11.4663 C   0  0  0  0  0  0  0  0  0  0  0  0
   53.1491   -5.6271   -9.3215 C   0  0  0  0  0  0  0  0  0  0  0  0
   53.8588   -4.4860   -9.7553 O   0  0  0  0  0  0  0  0  0  0  0  0
 16 17  1  0  0  0
 17 10  1  0  0  0
 10 11  2  0  0  0
 11 12  1  0  0  0
 12 13  2  0  0  0
 13 14  1  0  0  0
 14 15  2  0  0  0
 13  1  1  0  0  0
  1  2  1  0  0  0
  2  3  2  0  0  0
  3  4  1  0  0  0
  4  5  2  0  0  0
  5  6  1  0  0  0
  6  7  2  0  0  0
  7  8  1  0  0  0
  8  9  2  0  0  0
 15 10  1  0  0  0
  9  1  1  0  0  0
  9  4  1  0  0  0
M  END
> <minimizedAffinity>
2.27523

> <CNNscore>
0.5356175900

> <CNNaffinity>
4.0677046776

> <CNN_VS>
2.1787340641

> <CNNaffinity_variance>
0.3777670264

$$$$
[H]N=C(N([H])[H])N([H])C([H])([H])C([H])([H])C([H])([H])[C@@]([H])(C(=O)c1nc([H])c([H])s1)N([H])C(=O)[C@@]([H])(N([H])C(=O)[C@@]([H])(N([H])[H])C([H])([H])c1c([H])c([H])c(O[H])c([H])c1[H])C([H])([H])C([H])(C([H])([H])[H])C([H])([H])[H]


 45 46  0  0  0  0  0  0  0  0999 V2000
   56.7977   -4.8778   -7.8524 C   0  0  0  0  0  0  0  0  0  0  0  0
   57.9359   -4.3856   -7.4984 O   0  0  0  0  0  0  0  0  0  0  0  0
   56.6706   -5.2174   -9.2165 N   0  0  0  0  0  0  0  0  0  0  0  0
   55.7840   -5.6031   -9.5731 H   0  0  0  0  0  0  0  0  0  0  0  0
   55.7375   -5.0620   -6.8581 C   0  0  0  0  0  0  0  0  0  0  0  0
   54.4503   -4.6871   -7.3385 N   0  0  0  0  0  0  0  0  0  0  0  0
   54.2582   -3.4703   -8.0451 C   0  0  0  0  0  0  0  0  0  0  0  0
   55.2546   -2.6894   -8.2650 O   0  0  0  0  0  0  0  0  0  0  0  0
   53.6342   -5.2951   -7.1787 H   0  0  0  0  0  0  0  0  0  0  0  0
   52.9509   -3.0045   -8.5625 C   0  0  0  0  0  0  0  0  0  0  0  0
   53.0717   -2.9262  -10.0432 N   0  0  0  0  0  0  0  0  0  0  0  0
   53.8662   -2.2720  -10.2458 H   0  0  0  0  0  0  0  0  0  0  0  0
   53.4099   -3.8858  -10.3210 H   0  0  0  0  0  0  0  0  0  0  0  0
   51.8581   -4.0135   -8.3083 C   0  0  0  0  0  0  0  0  0  0  0  0
   51.0084   -3.7991   -7.1538 C   0  0  0  0  0  0  0  0  0  0  0  0
   50.1188   -2.7441   -7.0910 C   0  0  0  0  0  0  0  0  0  0  0  0
   49.2701   -2.5762   -5.9950 C   0  0  0  0  0  0  0  0  0  0  0  0
   49.3315   -3.4841   -4.9677 C   0  0  0  0  0  0  0  0  0  0  0  0
   48.5042   -3.3647   -3.8460 O   0  0  0  0  0  0  0  0  0  0  0  0
   50.2095   -4.5455   -5.0037 C   0  0  0  0  0  0  0  0  0  0  0  0
   51.0374   -4.6916   -6.0943 C   0  0  0  0  0  0  0  0  0  0  0  0
   47.5952   -3.8115   -3.8286 H   0  0  0  0  0  0  0  0  0  0  0  0
   55.7449   -6.3414   -6.0965 C   0  0  0  0  0  0  0  0  0  0  0  0
   55.5953   -5.2491   -3.9562 C   0  0  0  0  0  0  0  0  0  0  0  0
   55.0373   -6.4139   -4.8114 C   0  0  0  0  0  0  0  0  0  0  0  0
   55.1948   -7.6651   -4.0158 C   0  0  0  0  0  0  0  0  0  0  0  0
   57.8242   -5.0185  -10.1423 C   0  0  0  0  0  0  0  0  0  0  0  0
   57.3268   -4.4415  -11.3423 C   0  0  0  0  0  0  0  0  0  0  0  0
   56.0327   -4.1498  -11.2917 O   0  0  0  0  0  0  0  0  0  0  0  0
   57.8985   -4.0970  -12.6340 C   0  0  0  0  0  0  0  0  0  0  0  0
   59.2078   -3.9769  -12.8730 N   0  0  0  0  0  0  0  0  0  0  0  0
   59.6343   -3.5898  -14.0315 C   0  0  0  0  0  0  0  0  0  0  0  0
   58.6954   -3.3112  -14.9930 C   0  0  0  0  0  0  0  0  0  0  0  0
   57.2615   -3.6314  -14.1455 S   0  0  0  0  0  0  0  0  0  0  0  0
   58.7714   -6.1176  -10.0208 C   0  0  0  0  0  0  0  0  0  0  0  0
   60.2162   -5.8778   -9.8891 C   0  0  0  0  0  0  0  0  0  0  0  0
   60.7910   -6.5508   -8.6250 C   0  0  0  0  0  0  0  0  0  0  0  0
   61.6828   -7.6271   -8.9064 N   0  0  0  0  0  0  0  0  0  0  0  0
   62.7098   -7.4755   -8.7593 H   0  0  0  0  0  0  0  0  0  0  0  0
   61.3054   -8.9055   -9.3743 C   0  0  0  0  0  0  0  0  0  0  0  0
   60.9391   -9.8867   -8.3842 N   0  0  0  0  0  0  0  0  0  0  0  0
   61.2708   -9.2455  -10.6171 N   0  0  0  0  0  0  0  0  0  0  0  0
   60.9950  -10.8928   -8.6187 H   0  0  0  0  0  0  0  0  0  0  0  0
   60.6198   -9.6021   -7.4369 H   0  0  0  0  0  0  0  0  0  0  0  0
   61.5370   -8.5404  -11.3473 H   0  0  0  0  0  0  0  0  0  0  0  0
 24 25  1  0  0  0
 25 26  1  0  0  0
 25 23  1  0  0  0
 23  5  1  0  0  0
  5  6  1  0  0  0
  6  7  1  0  0  0
  7  8  2  0  0  0
  7 10  1  0  0  0
 10 11  1  0  0  0
 10 14  1  0  0  0
 14 15  1  0  0  0
 15 16  2  0  0  0
 16 17  1  0  0  0
 17 18  2  0  0  0
 18 19  1  0  0  0
 18 20  1  0  0  0
 20 21  2  0  0  0
  5  1  1  0  0  0
  1  2  2  0  0  0
  1  3  1  0  0  0
  3 27  1  0  0  0
 27 35  1  0  0  0
 35 36  1  0  0  0
 36 37  1  0  0  0
 37 38  1  0  0  0
 38 40  1  0  0  0
 40 41  1  0  0  0
 40 42  2  0  0  0
 27 28  1  0  0  0
 28 29  2  0  0  0
 28 30  1  0  0  0
 30 31  2  0  0  0
 31 32  1  0  0  0
 32 33  2  0  0  0
 33 34  1  0  0  0
 21 15  1  0  0  0
 34 30  1  0  0  0
  6  9  1  0  0  0
 11 12  1  0  0  0
 11 13  1  0  0  0
 19 22  1  0  0  0
  3  4  1  0  0  0
 38 39  1  0  0  0
 41 43  1  0  0  0
 41 44  1  0  0  0
 42 45  1  0  0  0
M  END
> <minimizedAffinity>
-7.99960

> <CNNscore>
0.3914480805

> <CNNaffinity>
7.0233550072

> <CNN_VS>
2.7492787838

> <CNNaffinity_variance>
0.1081381217

$$$$
[H]N=C(N([H])[H])N([H])C([H])([H])C([H])([H])C([H])([H])[C@@]([H])(C(=O)c1nc([H])c([H])s1)N([H])C(=O)[C@@]([H])(N([H])C(=O)[C@@]([H])(N([H])[H])C([H])([H])c1c([H])c([H])c(O[H])c([H])c1[H])C([H])([H])C([H])(C([H])([H])[H])C([H])([H])[H]


 45 46  0  0  0  0  0  0  0  0999 V2000
   56.8915   -4.9769   -7.7545 C   0  0  0  0  0  0  0  0  0  0  0  0
   56.2634   -3.8700   -7.5458 O   0  0  0  0  0  0  0  0  0  0  0  0
   56.4442   -6.0891   -7.0096 N   0  0  0  0  0  0  0  0  0  0  0  0
   56.9088   -7.0029   -7.1150 H   0  0  0  0  0  0  0  0  0  0  0  0
   57.9891   -5.0254   -8.7239 C   0  0  0  0  0  0  0  0  0  0  0  0
   59.0558   -5.8769   -8.3172 N   0  0  0  0  0  0  0  0  0  0  0  0
   60.1089   -6.2090   -9.2101 C   0  0  0  0  0  0  0  0  0  0  0  0
   60.1132   -5.7359  -10.4048 O   0  0  0  0  0  0  0  0  0  0  0  0
   59.0792   -6.2684   -7.3645 H   0  0  0  0  0  0  0  0  0  0  0  0
   61.2432   -7.0975   -8.8674 C   0  0  0  0  0  0  0  0  0  0  0  0
   61.2112   -7.2954   -7.3933 N   0  0  0  0  0  0  0  0  0  0  0  0
   61.2729   -6.3419   -6.9607 H   0  0  0  0  0  0  0  0  0  0  0  0
   60.2307   -7.6352   -7.2044 H   0  0  0  0  0  0  0  0  0  0  0  0
   61.0694   -8.4767   -9.4548 C   0  0  0  0  0  0  0  0  0  0  0  0
   62.0485   -8.9140  -10.4299 C   0  0  0  0  0  0  0  0  0  0  0  0
   62.7163   -8.0183  -11.2424 C   0  0  0  0  0  0  0  0  0  0  0  0
   63.6933   -8.4467  -12.1434 C   0  0  0  0  0  0  0  0  0  0  0  0
   63.9855   -9.7857  -12.2127 C   0  0  0  0  0  0  0  0  0  0  0  0
   64.9555  -10.2700  -13.0967 O   0  0  0  0  0  0  0  0  0  0  0  0
   63.3347  -10.7012  -11.4146 C   0  0  0  0  0  0  0  0  0  0  0  0
   62.3746  -10.2566  -10.5333 C   0  0  0  0  0  0  0  0  0  0  0  0
   65.9225  -10.3486  -12.8051 H   0  0  0  0  0  0  0  0  0  0  0  0
   57.6142   -5.1752  -10.1570 C   0  0  0  0  0  0  0  0  0  0  0  0
   55.6547   -4.2288  -11.1872 C   0  0  0  0  0  0  0  0  0  0  0  0
   57.1599   -3.9958  -10.9054 C   0  0  0  0  0  0  0  0  0  0  0  0
   57.8203   -3.7225  -12.2141 C   0  0  0  0  0  0  0  0  0  0  0  0
   55.2949   -5.9400   -6.0692 C   0  0  0  0  0  0  0  0  0  0  0  0
   55.8088   -5.9628   -4.7442 C   0  0  0  0  0  0  0  0  0  0  0  0
   55.3011   -5.0163   -3.9640 O   0  0  0  0  0  0  0  0  0  0  0  0
   56.7769   -6.7779   -4.0285 C   0  0  0  0  0  0  0  0  0  0  0  0
   58.0396   -6.9708   -4.4211 N   0  0  0  0  0  0  0  0  0  0  0  0
   58.8175   -7.7744   -3.7708 C   0  0  0  0  0  0  0  0  0  0  0  0
   58.2962   -8.4128   -2.6733 C   0  0  0  0  0  0  0  0  0  0  0  0
   56.7147   -7.7999   -2.6651 S   0  0  0  0  0  0  0  0  0  0  0  0
   54.1279   -6.6500   -6.5731 C   0  0  0  0  0  0  0  0  0  0  0  0
   52.8448   -5.9655   -6.7905 C   0  0  0  0  0  0  0  0  0  0  0  0
   53.0352   -4.4446   -6.9690 C   0  0  0  0  0  0  0  0  0  0  0  0
   53.3314   -4.0596   -8.3095 N   0  0  0  0  0  0  0  0  0  0  0  0
   53.7066   -4.7861   -8.9658 H   0  0  0  0  0  0  0  0  0  0  0  0
   53.1632   -2.7646   -8.8484 C   0  0  0  0  0  0  0  0  0  0  0  0
   54.3247   -1.9121   -8.8866 N   0  0  0  0  0  0  0  0  0  0  0  0
   52.0481   -2.3030   -9.3009 N   0  0  0  0  0  0  0  0  0  0  0  0
   54.2022   -0.8858   -8.9336 H   0  0  0  0  0  0  0  0  0  0  0  0
   55.2848   -2.3095   -8.8672 H   0  0  0  0  0  0  0  0  0  0  0  0
   51.1950   -2.9137   -9.2768 H   0  0  0  0  0  0  0  0  0  0  0  0
 24 25  1  0  0  0
 25 26  1  0  0  0
 25 23  1  0  0  0
 23  5  1  0  0  0
  5  6  1  0  0  0
  6  7  1  0  0  0
  7  8  2  0  0  0
  7 10  1  0  0  0
 10 11  1  0  0  0
 10 14  1  0  0  0
 14 15  1  0  0  0
 15 16  2  0  0  0
 16 17  1  0  0  0
 17 18  2  0  0  0
 18 19  1  0  0  0
 18 20  1  0  0  0
 20 21  2  0  0  0
  5  1  1  0  0  0
  1  2  2  0  0  0
  1  3  1  0  0  0
  3 27  1  0  0  0
 27 35  1  0  0  0
 35 36  1  0  0  0
 36 37  1  0  0  0
 37 38  1  0  0  0
 38 40  1  0  0  0
 40 41  1  0  0  0
 40 42  2  0  0  0
 27 28  1  0  0  0
 28 29  2  0  0  0
 28 30  1  0  0  0
 30 31  2  0  0  0
 31 32  1  0  0  0
 32 33  2  0  0  0
 33 34  1  0  0  0
 21 15  1  0  0  0
 34 30  1  0  0  0
  6  9  1  0  0  0
 11 12  1  0  0  0
 11 13  1  0  0  0
 19 22  1  0  0  0
  3  4  1  0  0  0
 38 39  1  0  0  0
 41 43  1  0  0  0
 41 44  1  0  0  0
 42 45  1  0  0  0
M  END
> <minimizedAffinity>
-7.51246

> <CNNscore>
0.2877244651

> <CNNaffinity>
6.0176725388

> <CNN_VS>
1.7314316034

> <CNNaffinity_variance>
0.5677781701

$$$$
[H]N=C(N([H])[H])N([H])C([H])([H])C([H])([H])C([H])([H])[C@@]([H])(C(=O)c1nc([H])c([H])s1)N([H])C(=O)[C@@]([H])(N([H])C(=O)[C@@]([H])(N([H])[H])C([H])([H])c1c([H])c([H])c(O[H])c([H])c1[H])C([H])([H])C([H])(C([H])([H])[H])C([H])([H])[H]


 45 46  0  0  0  0  0  0  0  0999 V2000
   56.1065   -5.5248   -5.7461 C   0  0  0  0  0  0  0  0  0  0  0  0
   55.5650   -4.8088   -4.8202 O   0  0  0  0  0  0  0  0  0  0  0  0
   56.7020   -6.7323   -5.3224 N   0  0  0  0  0  0  0  0  0  0  0  0
   57.1658   -7.3481   -6.0062 H   0  0  0  0  0  0  0  0  0  0  0  0
   56.0698   -5.0718   -7.1390 C   0  0  0  0  0  0  0  0  0  0  0  0
   55.2153   -3.9500   -7.3388 N   0  0  0  0  0  0  0  0  0  0  0  0
   53.9691   -4.0883   -8.0055 C   0  0  0  0  0  0  0  0  0  0  0  0
   53.5932   -5.2393   -8.4354 O   0  0  0  0  0  0  0  0  0  0  0  0
   55.4902   -3.0159   -7.0024 H   0  0  0  0  0  0  0  0  0  0  0  0
   53.0337   -2.9695   -8.2641 C   0  0  0  0  0  0  0  0  0  0  0  0
   53.3402   -2.4514   -9.6245 N   0  0  0  0  0  0  0  0  0  0  0  0
   54.3499   -2.1678   -9.6177 H   0  0  0  0  0  0  0  0  0  0  0  0
   53.2846   -3.3064  -10.2398 H   0  0  0  0  0  0  0  0  0  0  0  0
   51.6027   -3.4432   -8.3351 C   0  0  0  0  0  0  0  0  0  0  0  0
   50.8557   -3.4960   -7.0941 C   0  0  0  0  0  0  0  0  0  0  0  0
   49.8900   -2.5576   -6.7857 C   0  0  0  0  0  0  0  0  0  0  0  0
   49.1422   -2.6470   -5.6099 C   0  0  0  0  0  0  0  0  0  0  0  0
   49.3817   -3.6922   -4.7534 C   0  0  0  0  0  0  0  0  0  0  0  0
   48.6618   -3.8310   -3.5620 O   0  0  0  0  0  0  0  0  0  0  0  0
   50.3392   -4.6421   -5.0355 C   0  0  0  0  0  0  0  0  0  0  0  0
   51.0649   -4.5342   -6.2008 C   0  0  0  0  0  0  0  0  0  0  0  0
   47.8004   -4.3637   -3.5418 H   0  0  0  0  0  0  0  0  0  0  0  0
   57.3758   -4.9652   -7.8460 C   0  0  0  0  0  0  0  0  0  0  0  0
   58.9489   -5.7203   -9.5048 C   0  0  0  0  0  0  0  0  0  0  0  0
   57.4614   -5.3669   -9.2562 C   0  0  0  0  0  0  0  0  0  0  0  0
   57.0677   -4.3554  -10.2786 C   0  0  0  0  0  0  0  0  0  0  0  0
   56.6572   -7.1171   -3.8811 C   0  0  0  0  0  0  0  0  0  0  0  0
   57.9894   -7.1107   -3.3856 C   0  0  0  0  0  0  0  0  0  0  0  0
   58.2125   -6.1644   -2.4817 O   0  0  0  0  0  0  0  0  0  0  0  0
   59.1870   -7.8950   -3.6397 C   0  0  0  0  0  0  0  0  0  0  0  0
   60.0740   -7.6294   -4.6032 N   0  0  0  0  0  0  0  0  0  0  0  0
   61.0745   -8.4216   -4.8158 C   0  0  0  0  0  0  0  0  0  0  0  0
   61.1843   -9.5335   -4.0188 C   0  0  0  0  0  0  0  0  0  0  0  0
   59.8272   -9.3481   -3.0184 S   0  0  0  0  0  0  0  0  0  0  0  0
   55.6391   -8.1333   -3.6557 C   0  0  0  0  0  0  0  0  0  0  0  0
   54.7383   -8.0764   -2.4948 C   0  0  0  0  0  0  0  0  0  0  0  0
   53.3899   -7.4175   -2.8538 C   0  0  0  0  0  0  0  0  0  0  0  0
   53.4471   -5.9940   -2.9109 N   0  0  0  0  0  0  0  0  0  0  0  0
   53.1965   -5.5205   -3.8122 H   0  0  0  0  0  0  0  0  0  0  0  0
   53.8171   -5.1434   -1.8454 C   0  0  0  0  0  0  0  0  0  0  0  0
   52.7847   -4.7732   -0.9102 N   0  0  0  0  0  0  0  0  0  0  0  0
   55.0062   -4.6816   -1.6610 N   0  0  0  0  0  0  0  0  0  0  0  0
   52.8945   -3.9148   -0.3434 H   0  0  0  0  0  0  0  0  0  0  0  0
   51.9300   -5.3533   -0.7949 H   0  0  0  0  0  0  0  0  0  0  0  0
   55.7660   -4.9425   -2.3362 H   0  0  0  0  0  0  0  0  0  0  0  0
 24 25  1  0  0  0
 25 26  1  0  0  0
 25 23  1  0  0  0
 23  5  1  0  0  0
  5  6  1  0  0  0
  6  7  1  0  0  0
  7  8  2  0  0  0
  7 10  1  0  0  0
 10 11  1  0  0  0
 10 14  1  0  0  0
 14 15  1  0  0  0
 15 16  2  0  0  0
 16 17  1  0  0  0
 17 18  2  0  0  0
 18 19  1  0  0  0
 18 20  1  0  0  0
 20 21  2  0  0  0
  5  1  1  0  0  0
  1  2  2  0  0  0
  1  3  1  0  0  0
  3 27  1  0  0  0
 27 35  1  0  0  0
 35 36  1  0  0  0
 36 37  1  0  0  0
 37 38  1  0  0  0
 38 40  1  0  0  0
 40 41  1  0  0  0
 40 42  2  0  0  0
 27 28  1  0  0  0
 28 29  2  0  0  0
 28 30  1  0  0  0
 30 31  2  0  0  0
 31 32  1  0  0  0
 32 33  2  0  0  0
 33 34  1  0  0  0
 21 15  1  0  0  0
 34 30  1  0  0  0
  6  9  1  0  0  0
 11 12  1  0  0  0
 11 13  1  0  0  0
 19 22  1  0  0  0
  3  4  1  0  0  0
 38 39  1  0  0  0
 41 43  1  0  0  0
 41 44  1  0  0  0
 42 45  1  0  0  0
M  END
> <minimizedAffinity>
-8.63981

> <CNNscore>
0.2768507004

> <CNNaffinity>
6.4920945168

> <CNN_VS>
1.7973408699

> <CNNaffinity_variance>
0.8788107634

$$$$
[H]N=C(N([H])[H])N([H])C([H])([H])C([H])([H])C([H])([H])[C@@]([H])(C(=O)c1nc([H])c([H])s1)N([H])C(=O)[C@@]([H])(N([H])C(=O)[C@@]([H])(N([H])[H])C([H])([H])c1c([H])c([H])c(O[H])c([H])c1[H])C([H])([H])C([H])(C([H])([H])[H])C([H])([H])[H]


 45 46  0  0  0  0  0  0  0  0999 V2000
   56.1140   -5.4718   -6.0274 C   0  0  0  0  0  0  0  0  0  0  0  0
   55.4343   -4.8409   -5.1313 O   0  0  0  0  0  0  0  0  0  0  0  0
   56.7819   -6.6352   -5.5886 N   0  0  0  0  0  0  0  0  0  0  0  0
   57.3554   -7.1820   -6.2474 H   0  0  0  0  0  0  0  0  0  0  0  0
   56.1500   -4.9746   -7.4051 C   0  0  0  0  0  0  0  0  0  0  0  0
   55.2697   -3.8769   -7.6256 N   0  0  0  0  0  0  0  0  0  0  0  0
   53.9349   -4.0852   -8.0632 C   0  0  0  0  0  0  0  0  0  0  0  0
   53.5013   -5.2783   -8.2620 O   0  0  0  0  0  0  0  0  0  0  0  0
   55.5898   -2.9099   -7.4718 H   0  0  0  0  0  0  0  0  0  0  0  0
   52.9653   -2.9973   -8.3281 C   0  0  0  0  0  0  0  0  0  0  0  0
   53.2413   -2.4928   -9.7001 N   0  0  0  0  0  0  0  0  0  0  0  0
   54.2427   -2.1809   -9.7098 H   0  0  0  0  0  0  0  0  0  0  0  0
   53.2028   -3.3587  -10.3011 H   0  0  0  0  0  0  0  0  0  0  0  0
   51.5475   -3.5119   -8.3744 C   0  0  0  0  0  0  0  0  0  0  0  0
   50.8023   -3.5252   -7.1313 C   0  0  0  0  0  0  0  0  0  0  0  0
   49.9016   -2.5275   -6.8123 C   0  0  0  0  0  0  0  0  0  0  0  0
   49.1530   -2.5767   -5.6346 C   0  0  0  0  0  0  0  0  0  0  0  0
   49.3253   -3.6423   -4.7871 C   0  0  0  0  0  0  0  0  0  0  0  0
   48.6014   -3.7427   -3.5944 O   0  0  0  0  0  0  0  0  0  0  0  0
   50.2171   -4.6511   -5.0799 C   0  0  0  0  0  0  0  0  0  0  0  0
   50.9451   -4.5820   -6.2468 C   0  0  0  0  0  0  0  0  0  0  0  0
   47.7066   -4.2174   -3.5754 H   0  0  0  0  0  0  0  0  0  0  0  0
   57.4938   -4.7998   -8.0220 C   0  0  0  0  0  0  0  0  0  0  0  0
   59.2872   -5.7838   -9.2916 C   0  0  0  0  0  0  0  0  0  0  0  0
   57.7773   -5.4388   -9.3138 C   0  0  0  0  0  0  0  0  0  0  0  0
   57.5230   -4.6340  -10.5431 C   0  0  0  0  0  0  0  0  0  0  0  0
   56.6548   -7.0736   -4.1676 C   0  0  0  0  0  0  0  0  0  0  0  0
   57.9423   -6.9982   -3.5703 C   0  0  0  0  0  0  0  0  0  0  0  0
   58.9224   -7.3898   -4.3757 O   0  0  0  0  0  0  0  0  0  0  0  0
   58.4524   -6.5991   -2.2686 C   0  0  0  0  0  0  0  0  0  0  0  0
   57.9431   -5.6102   -1.5282 N   0  0  0  0  0  0  0  0  0  0  0  0
   58.5030   -5.2639   -0.4145 C   0  0  0  0  0  0  0  0  0  0  0  0
   59.6294   -5.9478   -0.0307 C   0  0  0  0  0  0  0  0  0  0  0  0
   59.7937   -7.0440   -1.3145 S   0  0  0  0  0  0  0  0  0  0  0  0
   55.6937   -8.1614   -4.0533 C   0  0  0  0  0  0  0  0  0  0  0  0
   54.6822   -8.1862   -2.9863 C   0  0  0  0  0  0  0  0  0  0  0  0
   53.5378   -7.1892   -3.2650 C   0  0  0  0  0  0  0  0  0  0  0  0
   53.1665   -6.4137   -2.1277 N   0  0  0  0  0  0  0  0  0  0  0  0
   52.4098   -6.7787   -1.5004 H   0  0  0  0  0  0  0  0  0  0  0  0
   53.7339   -5.1738   -1.7581 C   0  0  0  0  0  0  0  0  0  0  0  0
   52.9676   -4.3391   -0.8673 N   0  0  0  0  0  0  0  0  0  0  0  0
   54.8800   -4.7469   -2.1649 N   0  0  0  0  0  0  0  0  0  0  0  0
   53.1486   -3.3208   -0.8413 H   0  0  0  0  0  0  0  0  0  0  0  0
   52.2347   -4.7416   -0.2500 H   0  0  0  0  0  0  0  0  0  0  0  0
   55.4464   -5.3448   -2.8151 H   0  0  0  0  0  0  0  0  0  0  0  0
 24 25  1  0  0  0
 25 26  1  0  0  0
 25 23  1  0  0  0
 23  5  1  0  0  0
  5  6  1  0  0  0
  6  7  1  0  0  0
  7  8  2  0  0  0
  7 10  1  0  0  0
 10 11  1  0  0  0
 10 14  1  0  0  0
 14 15  1  0  0  0
 15 16  2  0  0  0
 16 17  1  0  0  0
 17 18  2  0  0  0
 18 19  1  0  0  0
 18 20  1  0  0  0
 20 21  2  0  0  0
  5  1  1  0  0  0
  1  2  2  0  0  0
  1  3  1  0  0  0
  3 27  1  0  0  0
 27 35  1  0  0  0
 35 36  1  0  0  0
 36 37  1  0  0  0
 37 38  1  0  0  0
 38 40  1  0  0  0
 40 41  1  0  0  0
 40 42  2  0  0  0
 27 28  1  0  0  0
 28 29  2  0  0  0
 28 30  1  0  0  0
 30 31  2  0  0  0
 31 32  1  0  0  0
 32 33  2  0  0  0
 33 34  1  0  0  0
 21 15  1  0  0  0
 34 30  1  0  0  0
  6  9  1  0  0  0
 11 12  1  0  0  0
 11 13  1  0  0  0
 19 22  1  0  0  0
  3  4  1  0  0  0
 38 39  1  0  0  0
 41 43  1  0  0  0
 41 44  1  0  0  0
 42 45  1  0  0  0
M  END
> <minimizedAffinity>
-8.62558

> <CNNscore>
0.2717075646

> <CNNaffinity>
6.4690446854

> <CNN_VS>
1.7576884031

> <CNNaffinity_variance>
1.0371406078

$$$$
[H]N=C(N([H])[H])N([H])C([H])([H])C([H])([H])C([H])([H])[C@@]([H])(C(=O)c1nc([H])c([H])s1)N([H])C(=O)[C@@]([H])(N([H])C(=O)[C@@]([H])(N([H])[H])C([H])([H])c1c([H])c([H])c(O[H])c([H])c1[H])C([H])([H])C([H])(C([H])([H])[H])C([H])([H])[H]


 45 46  0  0  0  0  0  0  0  0999 V2000
   56.3323   -6.7968   -5.1281 C   0  0  0  0  0  0  0  0  0  0  0  0
   55.5026   -7.6372   -5.6464 O   0  0  0  0  0  0  0  0  0  0  0  0
   56.5829   -5.6320   -5.8848 N   0  0  0  0  0  0  0  0  0  0  0  0
   57.2457   -4.9229   -5.5386 H   0  0  0  0  0  0  0  0  0  0  0  0
   56.9423   -7.0771   -3.8259 C   0  0  0  0  0  0  0  0  0  0  0  0
   56.0416   -7.6885   -2.9075 N   0  0  0  0  0  0  0  0  0  0  0  0
   55.3995   -6.9275   -1.8950 C   0  0  0  0  0  0  0  0  0  0  0  0
   55.6227   -5.6657   -1.7988 O   0  0  0  0  0  0  0  0  0  0  0  0
   55.8421   -8.6976   -2.9629 H   0  0  0  0  0  0  0  0  0  0  0  0
   54.4633   -7.4918   -0.8956 C   0  0  0  0  0  0  0  0  0  0  0  0
   54.0207   -6.3662   -0.0295 N   0  0  0  0  0  0  0  0  0  0  0  0
   54.8878   -5.9497    0.3886 H   0  0  0  0  0  0  0  0  0  0  0  0
   53.6562   -5.6494   -0.7120 H   0  0  0  0  0  0  0  0  0  0  0  0
   53.2029   -8.0117   -1.5423 C   0  0  0  0  0  0  0  0  0  0  0  0
   52.4081   -7.0702   -2.3055 C   0  0  0  0  0  0  0  0  0  0  0  0
   52.7634   -6.6870   -3.5843 C   0  0  0  0  0  0  0  0  0  0  0  0
   51.9634   -5.8175   -4.3286 C   0  0  0  0  0  0  0  0  0  0  0  0
   50.8051   -5.3423   -3.7667 C   0  0  0  0  0  0  0  0  0  0  0  0
   49.9660   -4.4693   -4.4672 O   0  0  0  0  0  0  0  0  0  0  0  0
   50.4267   -5.7075   -2.4930 C   0  0  0  0  0  0  0  0  0  0  0  0
   51.2308   -6.5659   -1.7770 C   0  0  0  0  0  0  0  0  0  0  0  0
   49.2187   -4.8308   -5.0477 H   0  0  0  0  0  0  0  0  0  0  0  0
   58.2980   -7.6925   -3.8370 C   0  0  0  0  0  0  0  0  0  0  0  0
   60.6923   -7.6961   -3.5837 C   0  0  0  0  0  0  0  0  0  0  0  0
   59.3776   -7.0604   -3.0673 C   0  0  0  0  0  0  0  0  0  0  0  0
   59.3514   -7.2339   -1.5865 C   0  0  0  0  0  0  0  0  0  0  0  0
   55.8843   -5.4278   -7.1878 C   0  0  0  0  0  0  0  0  0  0  0  0
   56.8671   -5.1172   -8.1664 C   0  0  0  0  0  0  0  0  0  0  0  0
   58.1076   -5.1349   -7.6939 O   0  0  0  0  0  0  0  0  0  0  0  0
   56.8418   -4.7705   -9.5782 C   0  0  0  0  0  0  0  0  0  0  0  0
   57.8652   -4.9495  -10.4187 N   0  0  0  0  0  0  0  0  0  0  0  0
   57.7914   -4.5423  -11.6445 C   0  0  0  0  0  0  0  0  0  0  0  0
   56.6306   -3.9258  -12.0398 C   0  0  0  0  0  0  0  0  0  0  0  0
   55.7305   -3.9823  -10.6033 S   0  0  0  0  0  0  0  0  0  0  0  0
   54.6056   -4.7625   -6.9824 C   0  0  0  0  0  0  0  0  0  0  0  0
   53.3877   -5.2034   -7.6785 C   0  0  0  0  0  0  0  0  0  0  0  0
   52.4936   -4.0086   -8.0713 C   0  0  0  0  0  0  0  0  0  0  0  0
   51.5106   -3.6843   -7.0908 N   0  0  0  0  0  0  0  0  0  0  0  0
   51.4754   -4.2550   -6.2119 H   0  0  0  0  0  0  0  0  0  0  0  0
   50.5597   -2.6446   -7.1935 C   0  0  0  0  0  0  0  0  0  0  0  0
   50.8897   -1.5336   -8.0503 N   0  0  0  0  0  0  0  0  0  0  0  0
   49.4295   -2.6273   -6.5742 N   0  0  0  0  0  0  0  0  0  0  0  0
   50.4260   -0.6206   -7.9022 H   0  0  0  0  0  0  0  0  0  0  0  0
   51.5865   -1.6323   -8.8151 H   0  0  0  0  0  0  0  0  0  0  0  0
   49.1787   -3.4296   -5.9461 H   0  0  0  0  0  0  0  0  0  0  0  0
 24 25  1  0  0  0
 25 26  1  0  0  0
 25 23  1  0  0  0
 23  5  1  0  0  0
  5  6  1  0  0  0
  6  7  1  0  0  0
  7  8  2  0  0  0
  7 10  1  0  0  0
 10 11  1  0  0  0
 10 14  1  0  0  0
 14 15  1  0  0  0
 15 16  2  0  0  0
 16 17  1  0  0  0
 17 18  2  0  0  0
 18 19  1  0  0  0
 18 20  1  0  0  0
 20 21  2  0  0  0
  5  1  1  0  0  0
  1  2  2  0  0  0
  1  3  1  0  0  0
  3 27  1  0  0  0
 27 35  1  0  0  0
 35 36  1  0  0  0
 36 37  1  0  0  0
 37 38  1  0  0  0
 38 40  1  0  0  0
 40 41  1  0  0  0
 40 42  2  0  0  0
 27 28  1  0  0  0
 28 29  2  0  0  0
 28 30  1  0  0  0
 30 31  2  0  0  0
 31 32  1  0  0  0
 32 33  2  0  0  0
 33 34  1  0  0  0
 21 15  1  0  0  0
 34 30  1  0  0  0
  6  9  1  0  0  0
 11 12  1  0  0  0
 11 13  1  0  0  0
 19 22  1  0  0  0
  3  4  1  0  0  0
 38 39  1  0  0  0
 41 43  1  0  0  0
 41 44  1  0  0  0
 42 45  1  0  0  0
M  END
> <minimizedAffinity>
-7.27920

> <CNNscore>
0.2626935244

> <CNNaffinity>
6.7990546227

> <CNN_VS>
1.7860676050

> <CNNaffinity_variance>
0.1296107769

$$$$
[H]N=C(N([H])[H])N([H])C([H])([H])C([H])([H])C([H])([H])[C@@]([H])(C(=O)c1nc([H])c([H])s1)N([H])C(=O)[C@@]([H])(N([H])C(=O)[C@@]([H])(N([H])[H])C([H])([H])c1c([H])c([H])c(O[H])c([H])c1[H])C([H])([H])C([H])(C([H])([H])[H])C([H])([H])[H]


 45 46  0  0  0  0  0  0  0  0999 V2000
   53.5574   -5.4040   -6.9239 C   0  0  0  0  0  0  0  0  0  0  0  0
   52.6294   -5.8392   -7.7065 O   0  0  0  0  0  0  0  0  0  0  0  0
   54.4082   -4.4169   -7.4661 N   0  0  0  0  0  0  0  0  0  0  0  0
   55.1807   -4.0333   -6.9022 H   0  0  0  0  0  0  0  0  0  0  0  0
   53.6722   -5.9281   -5.5606 C   0  0  0  0  0  0  0  0  0  0  0  0
   54.9642   -5.7325   -4.9942 N   0  0  0  0  0  0  0  0  0  0  0  0
   55.7385   -6.8325   -4.5391 C   0  0  0  0  0  0  0  0  0  0  0  0
   55.2791   -8.0284   -4.6391 O   0  0  0  0  0  0  0  0  0  0  0  0
   55.3584   -4.7850   -4.9039 H   0  0  0  0  0  0  0  0  0  0  0  0
   57.0814   -6.7098   -3.9265 C   0  0  0  0  0  0  0  0  0  0  0  0
   57.0431   -5.5252   -3.0275 N   0  0  0  0  0  0  0  0  0  0  0  0
   56.7711   -4.7052   -3.6222 H   0  0  0  0  0  0  0  0  0  0  0  0
   56.2178   -5.7115   -2.3977 H   0  0  0  0  0  0  0  0  0  0  0  0
   57.3932   -7.8795   -3.0255 C   0  0  0  0  0  0  0  0  0  0  0  0
   58.7175   -8.4605   -3.1217 C   0  0  0  0  0  0  0  0  0  0  0  0
   59.0869   -9.5581   -2.3685 C   0  0  0  0  0  0  0  0  0  0  0  0
   60.3490  -10.1395   -2.5059 C   0  0  0  0  0  0  0  0  0  0  0  0
   61.2292   -9.6001   -3.4102 C   0  0  0  0  0  0  0  0  0  0  0  0
   62.5061  -10.1426   -3.5892 O   0  0  0  0  0  0  0  0  0  0  0  0
   60.8874   -8.5053   -4.1741 C   0  0  0  0  0  0  0  0  0  0  0  0
   59.6375   -7.9479   -4.0220 C   0  0  0  0  0  0  0  0  0  0  0  0
   62.6632  -10.8698   -4.2767 H   0  0  0  0  0  0  0  0  0  0  0  0
   52.5543   -5.6217   -4.6261 C   0  0  0  0  0  0  0  0  0  0  0  0
   51.0993   -6.3757   -2.8623 C   0  0  0  0  0  0  0  0  0  0  0  0
   52.5814   -6.1825   -3.2688 C   0  0  0  0  0  0  0  0  0  0  0  0
   53.2312   -5.3637   -2.2054 C   0  0  0  0  0  0  0  0  0  0  0  0
   54.1860   -3.9278   -8.8585 C   0  0  0  0  0  0  0  0  0  0  0  0
   55.3509   -4.2246   -9.6170 C   0  0  0  0  0  0  0  0  0  0  0  0
   55.1912   -4.0457  -10.9227 O   0  0  0  0  0  0  0  0  0  0  0  0
   56.6917   -4.6924   -9.3053 C   0  0  0  0  0  0  0  0  0  0  0  0
   57.5898   -5.0748  -10.2180 N   0  0  0  0  0  0  0  0  0  0  0  0
   58.7358   -5.5535   -9.8560 C   0  0  0  0  0  0  0  0  0  0  0  0
   58.9867   -5.6507   -8.5101 C   0  0  0  0  0  0  0  0  0  0  0  0
   57.5406   -5.0397   -7.8680 S   0  0  0  0  0  0  0  0  0  0  0  0
   53.4374   -2.6791   -8.8473 C   0  0  0  0  0  0  0  0  0  0  0  0
   51.9859   -2.6494   -9.0814 C   0  0  0  0  0  0  0  0  0  0  0  0
   51.2364   -1.9686   -7.9170 C   0  0  0  0  0  0  0  0  0  0  0  0
   50.0110   -2.6112   -7.5732 N   0  0  0  0  0  0  0  0  0  0  0  0
   49.1361   -2.3151   -8.0693 H   0  0  0  0  0  0  0  0  0  0  0  0
   49.8612   -3.6310   -6.6071 C   0  0  0  0  0  0  0  0  0  0  0  0
   50.0005   -4.9922   -7.0603 N   0  0  0  0  0  0  0  0  0  0  0  0
   49.6085   -3.4222   -5.3606 N   0  0  0  0  0  0  0  0  0  0  0  0
   49.5725   -5.7581   -6.5121 H   0  0  0  0  0  0  0  0  0  0  0  0
   50.5232   -5.2191   -7.9295 H   0  0  0  0  0  0  0  0  0  0  0  0
   49.5031   -2.4357   -5.0189 H   0  0  0  0  0  0  0  0  0  0  0  0
 24 25  1  0  0  0
 25 26  1  0  0  0
 25 23  1  0  0  0
 23  5  1  0  0  0
  5  6  1  0  0  0
  6  7  1  0  0  0
  7  8  2  0  0  0
  7 10  1  0  0  0
 10 11  1  0  0  0
 10 14  1  0  0  0
 14 15  1  0  0  0
 15 16  2  0  0  0
 16 17  1  0  0  0
 17 18  2  0  0  0
 18 19  1  0  0  0
 18 20  1  0  0  0
 20 21  2  0  0  0
  5  1  1  0  0  0
  1  2  2  0  0  0
  1  3  1  0  0  0
  3 27  1  0  0  0
 27 35  1  0  0  0
 35 36  1  0  0  0
 36 37  1  0  0  0
 37 38  1  0  0  0
 38 40  1  0  0  0
 40 41  1  0  0  0
 40 42  2  0  0  0
 27 28  1  0  0  0
 28 29  2  0  0  0
 28 30  1  0  0  0
 30 31  2  0  0  0
 31 32  1  0  0  0
 32 33  2  0  0  0
 33 34  1  0  0  0
 21 15  1  0  0  0
 34 30  1  0  0  0
  6  9  1  0  0  0
 11 12  1  0  0  0
 11 13  1  0  0  0
 19 22  1  0  0  0
  3  4  1  0  0  0
 38 39  1  0  0  0
 41 43  1  0  0  0
 41 44  1  0  0  0
 42 45  1  0  0  0
M  END
> <minimizedAffinity>
-6.65930

> <CNNscore>
0.2594894767

> <CNNaffinity>
6.6372871399

> <CNN_VS>
1.7223061323

> <CNNaffinity_variance>
0.2404033393

$$$$
[H]N=C(N([H])[H])N([H])C([H])([H])C([H])([H])C([H])([H])[C@@]([H])(C(=O)c1nc([H])c([H])s1)N([H])C(=O)[C@@]([H])(N([H])C(=O)[C@@]([H])(N([H])[H])C([H])([H])c1c([H])c([H])c(O[H])c([H])c1[H])C([H])([H])C([H])(C([H])([H])[H])C([H])([H])[H]


 45 46  0  0  0  0  0  0  0  0999 V2000
   57.0724   -4.8138   -7.5964 C   0  0  0  0  0  0  0  0  0  0  0  0
   56.5367   -3.6488   -7.4584 O   0  0  0  0  0  0  0  0  0  0  0  0
   56.6703   -5.7915   -6.6613 N   0  0  0  0  0  0  0  0  0  0  0  0
   57.0680   -6.7413   -6.7027 H   0  0  0  0  0  0  0  0  0  0  0  0
   58.0271   -5.0579   -8.6807 C   0  0  0  0  0  0  0  0  0  0  0  0
   59.0668   -5.9604   -8.3163 N   0  0  0  0  0  0  0  0  0  0  0  0
   60.1367   -6.2428   -9.2064 C   0  0  0  0  0  0  0  0  0  0  0  0
   60.1812   -5.6775  -10.3594 O   0  0  0  0  0  0  0  0  0  0  0  0
   59.0579   -6.4259   -7.3973 H   0  0  0  0  0  0  0  0  0  0  0  0
   61.2450   -7.1786   -8.9070 C   0  0  0  0  0  0  0  0  0  0  0  0
   61.2240   -7.4230   -7.4398 N   0  0  0  0  0  0  0  0  0  0  0  0
   61.3224   -6.4866   -6.9776 H   0  0  0  0  0  0  0  0  0  0  0  0
   60.2351   -7.7366   -7.2491 H   0  0  0  0  0  0  0  0  0  0  0  0
   61.0187   -8.5315   -9.5360 C   0  0  0  0  0  0  0  0  0  0  0  0
   62.0198   -9.0085  -10.4694 C   0  0  0  0  0  0  0  0  0  0  0  0
   62.7480   -8.1416  -11.2610 C   0  0  0  0  0  0  0  0  0  0  0  0
   63.7444   -8.6090  -12.1204 C   0  0  0  0  0  0  0  0  0  0  0  0
   63.9945   -9.9575  -12.1695 C   0  0  0  0  0  0  0  0  0  0  0  0
   64.9814  -10.4803  -13.0118 O   0  0  0  0  0  0  0  0  0  0  0  0
   63.2831  -10.8448  -11.3914 C   0  0  0  0  0  0  0  0  0  0  0  0
   62.3049  -10.3619  -10.5512 C   0  0  0  0  0  0  0  0  0  0  0  0
   65.9331  -10.5885  -12.6821 H   0  0  0  0  0  0  0  0  0  0  0  0
   57.4582   -5.3118  -10.0330 C   0  0  0  0  0  0  0  0  0  0  0  0
   55.5471   -4.1156  -10.8777 C   0  0  0  0  0  0  0  0  0  0  0  0
   57.0951   -4.1702  -10.8829 C   0  0  0  0  0  0  0  0  0  0  0  0
   57.5338   -4.2138  -12.3074 C   0  0  0  0  0  0  0  0  0  0  0  0
   55.6659   -5.4478   -5.6123 C   0  0  0  0  0  0  0  0  0  0  0  0
   56.2723   -5.6520   -4.3431 C   0  0  0  0  0  0  0  0  0  0  0  0
   56.2794   -4.5658   -3.5799 O   0  0  0  0  0  0  0  0  0  0  0  0
   56.9044   -6.7764   -3.6722 C   0  0  0  0  0  0  0  0  0  0  0  0
   56.3162   -7.5242   -2.7338 N   0  0  0  0  0  0  0  0  0  0  0  0
   56.9732   -8.4592   -2.1274 C   0  0  0  0  0  0  0  0  0  0  0  0
   58.2848   -8.6479   -2.4850 C   0  0  0  0  0  0  0  0  0  0  0  0
   58.4690   -7.4542   -3.6758 S   0  0  0  0  0  0  0  0  0  0  0  0
   54.3328   -5.8607   -6.0275 C   0  0  0  0  0  0  0  0  0  0  0  0
   53.4690   -6.6669   -5.1522 C   0  0  0  0  0  0  0  0  0  0  0  0
   52.8880   -5.8257   -3.9963 C   0  0  0  0  0  0  0  0  0  0  0  0
   53.4045   -6.1810   -2.7158 N   0  0  0  0  0  0  0  0  0  0  0  0
   53.6524   -7.1842   -2.5387 H   0  0  0  0  0  0  0  0  0  0  0  0
   53.6188   -5.2902   -1.6404 C   0  0  0  0  0  0  0  0  0  0  0  0
   52.4689   -4.5876   -1.1291 N   0  0  0  0  0  0  0  0  0  0  0  0
   54.7657   -5.0679   -1.0960 N   0  0  0  0  0  0  0  0  0  0  0  0
   52.6017   -3.7025   -0.6102 H   0  0  0  0  0  0  0  0  0  0  0  0
   51.5068   -4.9539   -1.2726 H   0  0  0  0  0  0  0  0  0  0  0  0
   55.6107   -5.5721   -1.4607 H   0  0  0  0  0  0  0  0  0  0  0  0
 24 25  1  0  0  0
 25 26  1  0  0  0
 25 23  1  0  0  0
 23  5  1  0  0  0
  5  6  1  0  0  0
  6  7  1  0  0  0
  7  8  2  0  0  0
  7 10  1  0  0  0
 10 11  1  0  0  0
 10 14  1  0  0  0
 14 15  1  0  0  0
 15 16  2  0  0  0
 16 17  1  0  0  0
 17 18  2  0  0  0
 18 19  1  0  0  0
 18 20  1  0  0  0
 20 21  2  0  0  0
  5  1  1  0  0  0
  1  2  2  0  0  0
  1  3  1  0  0  0
  3 27  1  0  0  0
 27 35  1  0  0  0
 35 36  1  0  0  0
 36 37  1  0  0  0
 37 38  1  0  0  0
 38 40  1  0  0  0
 40 41  1  0  0  0
 40 42  2  0  0  0
 27 28  1  0  0  0
 28 29  2  0  0  0
 28 30  1  0  0  0
 30 31  2  0  0  0
 31 32  1  0  0  0
 32 33  2  0  0  0
 33 34  1  0  0  0
 21 15  1  0  0  0
 34 30  1  0  0  0
  6  9  1  0  0  0
 11 12  1  0  0  0
 11 13  1  0  0  0
 19 22  1  0  0  0
  3  4  1  0  0  0
 38 39  1  0  0  0
 41 43  1  0  0  0
 41 44  1  0  0  0
 42 45  1  0  0  0
M  END
> <minimizedAffinity>
-6.69186

> <CNNscore>
0.2504719794

> <CNNaffinity>
5.4789686203

> <CNN_VS>
1.3723281622

> <CNNaffinity_variance>
1.1798595190

$$$$
[H]N=C(N([H])[H])N([H])C([H])([H])C([H])([H])C([H])([H])[C@@]([H])(C(=O)c1nc([H])c([H])s1)N([H])C(=O)[C@@]([H])(N([H])C(=O)[C@@]([H])(N([H])[H])C([H])([H])c1c([H])c([H])c(O[H])c([H])c1[H])C([H])([H])C([H])(C([H])([H])[H])C([H])([H])[H]


 45 46  0  0  0  0  0  0  0  0999 V2000
   56.2771   -4.5837   -6.0286 C   0  0  0  0  0  0  0  0  0  0  0  0
   56.5809   -3.3323   -6.0990 O   0  0  0  0  0  0  0  0  0  0  0  0
   56.6808   -5.3783   -7.1230 N   0  0  0  0  0  0  0  0  0  0  0  0
   56.4596   -6.3846   -7.1409 H   0  0  0  0  0  0  0  0  0  0  0  0
   55.5645   -5.1002   -4.8573 C   0  0  0  0  0  0  0  0  0  0  0  0
   54.3529   -5.7700   -5.1916 N   0  0  0  0  0  0  0  0  0  0  0  0
   53.2497   -5.7778   -4.2974 C   0  0  0  0  0  0  0  0  0  0  0  0
   53.3319   -5.1703   -3.1681 O   0  0  0  0  0  0  0  0  0  0  0  0
   54.2581   -6.2630   -6.0912 H   0  0  0  0  0  0  0  0  0  0  0  0
   51.9641   -6.4626   -4.5658 C   0  0  0  0  0  0  0  0  0  0  0  0
   51.5451   -7.1151   -3.2963 N   0  0  0  0  0  0  0  0  0  0  0  0
   52.3222   -7.7634   -3.0208 H   0  0  0  0  0  0  0  0  0  0  0  0
   51.5599   -6.3307   -2.5913 H   0  0  0  0  0  0  0  0  0  0  0  0
   50.8644   -5.4803   -4.8867 C   0  0  0  0  0  0  0  0  0  0  0  0
   51.1044   -4.5390   -5.9624 C   0  0  0  0  0  0  0  0  0  0  0  0
   52.1093   -4.7350   -6.8899 C   0  0  0  0  0  0  0  0  0  0  0  0
   52.2992   -3.8472   -7.9508 C   0  0  0  0  0  0  0  0  0  0  0  0
   51.4645   -2.7636   -8.0621 C   0  0  0  0  0  0  0  0  0  0  0  0
   51.6090   -1.8428   -9.1052 O   0  0  0  0  0  0  0  0  0  0  0  0
   50.4544   -2.5434   -7.1510 C   0  0  0  0  0  0  0  0  0  0  0  0
   50.2853   -3.4317   -6.1125 C   0  0  0  0  0  0  0  0  0  0  0  0
   51.1136   -1.9748   -9.9788 H   0  0  0  0  0  0  0  0  0  0  0  0
   56.3797   -5.8095   -3.8330 C   0  0  0  0  0  0  0  0  0  0  0  0
   56.1767   -8.0646   -3.0146 C   0  0  0  0  0  0  0  0  0  0  0  0
   56.8342   -7.1799   -4.1029 C   0  0  0  0  0  0  0  0  0  0  0  0
   58.3028   -7.4333   -4.0547 C   0  0  0  0  0  0  0  0  0  0  0  0
   57.4309   -4.7585   -8.2546 C   0  0  0  0  0  0  0  0  0  0  0  0
   56.5352   -4.6222   -9.3498 C   0  0  0  0  0  0  0  0  0  0  0  0
   55.2734   -4.8920   -9.0374 O   0  0  0  0  0  0  0  0  0  0  0  0
   56.6696   -4.2625  -10.7521 C   0  0  0  0  0  0  0  0  0  0  0  0
   55.6723   -4.3002  -11.6409 N   0  0  0  0  0  0  0  0  0  0  0  0
   55.8906   -4.0398  -12.8891 C   0  0  0  0  0  0  0  0  0  0  0  0
   57.1753   -3.7271  -13.2572 C   0  0  0  0  0  0  0  0  0  0  0  0
   57.9731   -3.8335  -11.7641 S   0  0  0  0  0  0  0  0  0  0  0  0
   58.7989   -5.2554   -8.2929 C   0  0  0  0  0  0  0  0  0  0  0  0
   59.2413   -6.2146   -9.3159 C   0  0  0  0  0  0  0  0  0  0  0  0
   60.6959   -6.6704   -9.0762 C   0  0  0  0  0  0  0  0  0  0  0  0
   60.8873   -8.0747   -9.2313 N   0  0  0  0  0  0  0  0  0  0  0  0
   60.4798   -8.7165   -8.5092 H   0  0  0  0  0  0  0  0  0  0  0  0
   61.5885   -8.6964  -10.2885 C   0  0  0  0  0  0  0  0  0  0  0  0
   61.6104  -10.1374  -10.3056 N   0  0  0  0  0  0  0  0  0  0  0  0
   62.2042   -8.0622  -11.2265 N   0  0  0  0  0  0  0  0  0  0  0  0
   62.3626  -10.6296  -10.8179 H   0  0  0  0  0  0  0  0  0  0  0  0
   60.8837  -10.6926   -9.8116 H   0  0  0  0  0  0  0  0  0  0  0  0
   62.1970   -7.0129  -11.2238 H   0  0  0  0  0  0  0  0  0  0  0  0
 24 25  1  0  0  0
 25 26  1  0  0  0
 25 23  1  0  0  0
 23  5  1  0  0  0
  5  6  1  0  0  0
  6  7  1  0  0  0
  7  8  2  0  0  0
  7 10  1  0  0  0
 10 11  1  0  0  0
 10 14  1  0  0  0
 14 15  1  0  0  0
 15 16  2  0  0  0
 16 17  1  0  0  0
 17 18  2  0  0  0
 18 19  1  0  0  0
 18 20  1  0  0  0
 20 21  2  0  0  0
  5  1  1  0  0  0
  1  2  2  0  0  0
  1  3  1  0  0  0
  3 27  1  0  0  0
 27 35  1  0  0  0
 35 36  1  0  0  0
 36 37  1  0  0  0
 37 38  1  0  0  0
 38 40  1  0  0  0
 40 41  1  0  0  0
 40 42  2  0  0  0
 27 28  1  0  0  0
 28 29  2  0  0  0
 28 30  1  0  0  0
 30 31  2  0  0  0
 31 32  1  0  0  0
 32 33  2  0  0  0
 33 34  1  0  0  0
 21 15  1  0  0  0
 34 30  1  0  0  0
  6  9  1  0  0  0
 11 12  1  0  0  0
 11 13  1  0  0  0
 19 22  1  0  0  0
  3  4  1  0  0  0
 38 39  1  0  0  0
 41 43  1  0  0  0
 41 44  1  0  0  0
 42 45  1  0  0  0
M  END
> <minimizedAffinity>
-7.57809

> <CNNscore>
0.2462259382

> <CNNaffinity>
6.7290496826

> <CNN_VS>
1.6568665504

> <CNNaffinity_variance>
0.1729664207

$$$$
[H]N=C(N([H])[H])N([H])C([H])([H])C([H])([H])C([H])([H])[C@@]([H])(C(=O)c1nc([H])c([H])s1)N([H])C(=O)[C@@]([H])(N([H])C(=O)[C@@]([H])(N([H])[H])C([H])([H])c1c([H])c([H])c(O[H])c([H])c1[H])C([H])([H])C([H])(C([H])([H])[H])C([H])([H])[H]


 45 46  0  0  0  0  0  0  0  0999 V2000
   53.5187   -5.5753   -6.6871 C   0  0  0  0  0  0  0  0  0  0  0  0
   52.6824   -5.9067   -7.6112 O   0  0  0  0  0  0  0  0  0  0  0  0
   54.5611   -4.7091   -7.0812 N   0  0  0  0  0  0  0  0  0  0  0  0
   55.2740   -4.4136   -6.3983 H   0  0  0  0  0  0  0  0  0  0  0  0
   53.3466   -6.0866   -5.3249 C   0  0  0  0  0  0  0  0  0  0  0  0
   54.2949   -5.5547   -4.4050 N   0  0  0  0  0  0  0  0  0  0  0  0
   55.3921   -6.3339   -3.9517 C   0  0  0  0  0  0  0  0  0  0  0  0
   55.5454   -7.5375   -4.3748 O   0  0  0  0  0  0  0  0  0  0  0  0
   54.1981   -4.5920   -4.0513 H   0  0  0  0  0  0  0  0  0  0  0  0
   56.4100   -5.8581   -2.9867 C   0  0  0  0  0  0  0  0  0  0  0  0
   56.0727   -4.4468   -2.6587 N   0  0  0  0  0  0  0  0  0  0  0  0
   56.0684   -3.9202   -3.5657 H   0  0  0  0  0  0  0  0  0  0  0  0
   55.0662   -4.4927   -2.3468 H   0  0  0  0  0  0  0  0  0  0  0  0
   56.3257   -6.5994   -1.6751 C   0  0  0  0  0  0  0  0  0  0  0  0
   57.4198   -7.4893   -1.3408 C   0  0  0  0  0  0  0  0  0  0  0  0
   57.3343   -8.8538   -1.5391 C   0  0  0  0  0  0  0  0  0  0  0  0
   58.4130   -9.6954   -1.2597 C   0  0  0  0  0  0  0  0  0  0  0  0
   59.5739   -9.1431   -0.7796 C   0  0  0  0  0  0  0  0  0  0  0  0
   60.6855   -9.9390   -0.4836 O   0  0  0  0  0  0  0  0  0  0  0  0
   59.6868   -7.7856   -0.5719 C   0  0  0  0  0  0  0  0  0  0  0  0
   58.6104   -6.9744   -0.8541 C   0  0  0  0  0  0  0  0  0  0  0  0
   61.3850  -10.1279   -1.1916 H   0  0  0  0  0  0  0  0  0  0  0  0
   51.9561   -6.1324   -4.7947 C   0  0  0  0  0  0  0  0  0  0  0  0
   51.6727   -6.9932   -2.5641 C   0  0  0  0  0  0  0  0  0  0  0  0
   51.7015   -5.6989   -3.4146 C   0  0  0  0  0  0  0  0  0  0  0  0
   50.4289   -4.9669   -3.1535 C   0  0  0  0  0  0  0  0  0  0  0  0
   54.6283   -4.2200   -8.4896 C   0  0  0  0  0  0  0  0  0  0  0  0
   55.9042   -4.5659   -9.0118 C   0  0  0  0  0  0  0  0  0  0  0  0
   56.6786   -5.1992   -8.1390 O   0  0  0  0  0  0  0  0  0  0  0  0
   56.5799   -4.3833  -10.2862 C   0  0  0  0  0  0  0  0  0  0  0  0
   55.9847   -3.9518  -11.4021 N   0  0  0  0  0  0  0  0  0  0  0  0
   56.6379   -3.8906  -12.5171 C   0  0  0  0  0  0  0  0  0  0  0  0
   57.9529   -4.2832  -12.5048 C   0  0  0  0  0  0  0  0  0  0  0  0
   58.1457   -4.7127  -10.8753 S   0  0  0  0  0  0  0  0  0  0  0  0
   53.9407   -2.9432   -8.6196 C   0  0  0  0  0  0  0  0  0  0  0  0
   52.6417   -2.8341   -9.3000 C   0  0  0  0  0  0  0  0  0  0  0  0
   51.5594   -2.2499   -8.3680 C   0  0  0  0  0  0  0  0  0  0  0  0
   51.3397   -3.0250   -7.1917 N   0  0  0  0  0  0  0  0  0  0  0  0
   52.1626   -3.2517   -6.5828 H   0  0  0  0  0  0  0  0  0  0  0  0
   50.0917   -3.5268   -6.7598 C   0  0  0  0  0  0  0  0  0  0  0  0
   49.7754   -4.8897   -7.1058 N   0  0  0  0  0  0  0  0  0  0  0  0
   49.2279   -2.8487   -6.0852 N   0  0  0  0  0  0  0  0  0  0  0  0
   48.7864   -5.1924   -7.1318 H   0  0  0  0  0  0  0  0  0  0  0  0
   50.5234   -5.5754   -7.3308 H   0  0  0  0  0  0  0  0  0  0  0  0
   49.4460   -1.8548   -5.8288 H   0  0  0  0  0  0  0  0  0  0  0  0
 24 25  1  0  0  0
 25 26  1  0  0  0
 25 23  1  0  0  0
 23  5  1  0  0  0
  5  6  1  0  0  0
  6  7  1  0  0  0
  7  8  2  0  0  0
  7 10  1  0  0  0
 10 11  1  0  0  0
 10 14  1  0  0  0
 14 15  1  0  0  0
 15 16  2  0  0  0
 16 17  1  0  0  0
 17 18  2  0  0  0
 18 19  1  0  0  0
 18 20  1  0  0  0
 20 21  2  0  0  0
  5  1  1  0  0  0
  1  2  2  0  0  0
  1  3  1  0  0  0
  3 27  1  0  0  0
 27 35  1  0  0  0
 35 36  1  0  0  0
 36 37  1  0  0  0
 37 38  1  0  0  0
 38 40  1  0  0  0
 40 41  1  0  0  0
 40 42  2  0  0  0
 27 28  1  0  0  0
 28 29  2  0  0  0
 28 30  1  0  0  0
 30 31  2  0  0  0
 31 32  1  0  0  0
 32 33  2  0  0  0
 33 34  1  0  0  0
 21 15  1  0  0  0
 34 30  1  0  0  0
  6  9  1  0  0  0
 11 12  1  0  0  0
 11 13  1  0  0  0
 19 22  1  0  0  0
  3  4  1  0  0  0
 38 39  1  0  0  0
 41 43  1  0  0  0
 41 44  1  0  0  0
 42 45  1  0  0  0
M  END
> <minimizedAffinity>
-7.08057

> <CNNscore>
0.2387113124

> <CNNaffinity>
6.3666543961

> <CNN_VS>
1.5197924376

> <CNNaffinity_variance>
0.5067750216

$$$$
[H]c1c([H])c(N([H])C(=O)N([H])C2([H])C([H])([H])C([H])([H])N(C(=O)C3([H])C([H])([H])C3([H])[H])C([H])([H])C2([H])[H])c([H])c([H])c1OC(F)(F)F


 28 30  0  0  0  0  0  0  0  0999 V2000
   55.3774   -3.2682   -9.4073 N   0  0  0  0  0  0  0  0  0  0  0  0
   54.1233   -3.7143   -8.9602 C   0  0  0  0  0  0  0  0  0  0  0  0
   53.8547   -4.8948   -8.6547 O   0  0  0  0  0  0  0  0  0  0  0  0
   53.0814   -2.7126   -8.8539 N   0  0  0  0  0  0  0  0  0  0  0  0
   55.5073   -2.2244   -9.6345 H   0  0  0  0  0  0  0  0  0  0  0  0
   53.2657   -1.7209   -9.0989 H   0  0  0  0  0  0  0  0  0  0  0  0
   51.7702   -3.0944   -8.4026 C   0  0  0  0  0  0  0  0  0  0  0  0
   51.7826   -4.2408   -7.4442 C   0  0  0  0  0  0  0  0  0  0  0  0
   51.2056   -3.9751   -6.0979 C   0  0  0  0  0  0  0  0  0  0  0  0
   50.0949   -3.0846   -6.0713 N   0  0  0  0  0  0  0  0  0  0  0  0
   49.7662   -2.2359   -7.1996 C   0  0  0  0  0  0  0  0  0  0  0  0
   51.0783   -1.8674   -7.8547 C   0  0  0  0  0  0  0  0  0  0  0  0
   49.2644   -2.9964   -4.9267 C   0  0  0  0  0  0  0  0  0  0  0  0
   48.2723   -2.2277   -4.8541 O   0  0  0  0  0  0  0  0  0  0  0  0
   49.5542   -3.8329   -3.7536 C   0  0  0  0  0  0  0  0  0  0  0  0
   48.4451   -4.7858   -3.3796 C   0  0  0  0  0  0  0  0  0  0  0  0
   49.7447   -5.3091   -3.9047 C   0  0  0  0  0  0  0  0  0  0  0  0
   58.5807   -5.8915   -9.6974 C   0  0  0  0  0  0  0  0  0  0  0  0
   58.1347   -5.2857  -10.8467 C   0  0  0  0  0  0  0  0  0  0  0  0
   57.0733   -4.3968  -10.7839 C   0  0  0  0  0  0  0  0  0  0  0  0
   56.4857   -4.1370   -9.5787 C   0  0  0  0  0  0  0  0  0  0  0  0
   56.9422   -4.7563   -8.4026 C   0  0  0  0  0  0  0  0  0  0  0  0
   57.9890   -5.6269   -8.4928 C   0  0  0  0  0  0  0  0  0  0  0  0
   59.6479   -6.7895   -9.7385 O   0  0  0  0  0  0  0  0  0  0  0  0
   61.1041   -5.5245   -8.5591 F   0  0  0  0  0  0  0  0  0  0  0  0
   60.9850   -6.3306   -9.6690 C   0  0  0  0  0  0  0  0  0  0  0  0
   61.8634   -7.3851   -9.5222 F   0  0  0  0  0  0  0  0  0  0  0  0
   61.3127   -5.6742  -10.8386 F   0  0  0  0  0  0  0  0  0  0  0  0
 25 26  1  0  0  0
 26 27  1  0  0  0
 26 28  1  0  0  0
 26 24  1  0  0  0
 24 18  1  0  0  0
 18 19  2  0  0  0
 19 20  1  0  0  0
 20 21  2  0  0  0
 21  1  1  0  0  0
  1  2  1  0  0  0
  2  3  2  0  0  0
  2  4  1  0  0  0
  4  7  1  0  0  0
  7  8  1  0  0  0
  8  9  1  0  0  0
  9 10  1  0  0  0
 10 11  1  0  0  0
 11 12  1  0  0  0
 10 13  1  0  0  0
 13 14  2  0  0  0
 13 15  1  0  0  0
 15 16  1  0  0  0
 16 17  1  0  0  0
 21 22  1  0  0  0
 22 23  2  0  0  0
 23 18  1  0  0  0
 12  7  1  0  0  0
 17 15  1  0  0  0
  1  5  1  0  0  0
  4  6  1  0  0  0
M  END
> <minimizedAffinity>
-8.18092

> <CNNscore>
0.4179827869

> <CNNaffinity>
6.0439329147

> <CNN_VS>
2.5262598991

> <CNNaffinity_variance>
0.0612453111

$$$$
[H]c1c([H])c(N([H])C(=O)N([H])C2([H])C([H])([H])C([H])([H])N(C(=O)C3([H])C([H])([H])C3([H])[H])C([H])([H])C2([H])[H])c([H])c([H])c1OC(F)(F)F


 28 30  0  0  0  0  0  0  0  0999 V2000
   54.8399   -3.8202   -8.9455 N   0  0  0  0  0  0  0  0  0  0  0  0
   53.8834   -4.5695   -8.2417 C   0  0  0  0  0  0  0  0  0  0  0  0
   54.0592   -5.7311   -7.8186 O   0  0  0  0  0  0  0  0  0  0  0  0
   52.6075   -3.9258   -8.0013 N   0  0  0  0  0  0  0  0  0  0  0  0
   54.5910   -2.8208   -9.2571 H   0  0  0  0  0  0  0  0  0  0  0  0
   52.4231   -2.9612   -8.3375 H   0  0  0  0  0  0  0  0  0  0  0  0
   51.5778   -4.6312   -7.2864 C   0  0  0  0  0  0  0  0  0  0  0  0
   52.0247   -5.9535   -6.7528 C   0  0  0  0  0  0  0  0  0  0  0  0
   51.9414   -6.1259   -5.2765 C   0  0  0  0  0  0  0  0  0  0  0  0
   50.8415   -5.4795   -4.6445 N   0  0  0  0  0  0  0  0  0  0  0  0
   50.0648   -4.4565   -5.3167 C   0  0  0  0  0  0  0  0  0  0  0  0
   51.0243   -3.7146   -6.2198 C   0  0  0  0  0  0  0  0  0  0  0  0
   50.4655   -5.8177   -3.3209 C   0  0  0  0  0  0  0  0  0  0  0  0
   49.5025   -5.2774   -2.7199 O   0  0  0  0  0  0  0  0  0  0  0  0
   51.2208   -6.8467   -2.5926 C   0  0  0  0  0  0  0  0  0  0  0  0
   52.0581   -6.3154   -1.4547 C   0  0  0  0  0  0  0  0  0  0  0  0
   50.8711   -7.1830   -1.1774 C   0  0  0  0  0  0  0  0  0  0  0  0
   58.5759   -5.2073  -10.1055 C   0  0  0  0  0  0  0  0  0  0  0  0
   58.2639   -5.2307   -8.7681 C   0  0  0  0  0  0  0  0  0  0  0  0
   57.0213   -4.7838   -8.3475 C   0  0  0  0  0  0  0  0  0  0  0  0
   56.1250   -4.3258   -9.2705 C   0  0  0  0  0  0  0  0  0  0  0  0
   56.4437   -4.3022  -10.6390 C   0  0  0  0  0  0  0  0  0  0  0  0
   57.6739   -4.7483  -11.0258 C   0  0  0  0  0  0  0  0  0  0  0  0
   59.8213   -5.6527  -10.5502 O   0  0  0  0  0  0  0  0  0  0  0  0
   61.9164   -6.4516  -10.2601 F   0  0  0  0  0  0  0  0  0  0  0  0
   60.6525   -6.4355   -9.7138 C   0  0  0  0  0  0  0  0  0  0  0  0
   60.7442   -5.8845   -8.4516 F   0  0  0  0  0  0  0  0  0  0  0  0
   60.1171   -7.7008   -9.5789 F   0  0  0  0  0  0  0  0  0  0  0  0
 25 26  1  0  0  0
 26 27  1  0  0  0
 26 28  1  0  0  0
 26 24  1  0  0  0
 24 18  1  0  0  0
 18 19  2  0  0  0
 19 20  1  0  0  0
 20 21  2  0  0  0
 21  1  1  0  0  0
  1  2  1  0  0  0
  2  3  2  0  0  0
  2  4  1  0  0  0
  4  7  1  0  0  0
  7  8  1  0  0  0
  8  9  1  0  0  0
  9 10  1  0  0  0
 10 11  1  0  0  0
 11 12  1  0  0  0
 10 13  1  0  0  0
 13 14  2  0  0  0
 13 15  1  0  0  0
 15 16  1  0  0  0
 16 17  1  0  0  0
 21 22  1  0  0  0
 22 23  2  0  0  0
 23 18  1  0  0  0
 12  7  1  0  0  0
 17 15  1  0  0  0
  1  5  1  0  0  0
  4  6  1  0  0  0
M  END
> <minimizedAffinity>
-8.64755

> <CNNscore>
0.3587150574

> <CNNaffinity>
6.0279288292

> <CNN_VS>
2.1623089314

> <CNNaffinity_variance>
0.0458692014

$$$$
[H]c1c([H])c(N([H])C(=O)N([H])C2([H])C([H])([H])C([H])([H])N(C(=O)C3([H])C([H])([H])C3([H])[H])C([H])([H])C2([H])[H])c([H])c([H])c1OC(F)(F)F


 28 30  0  0  0  0  0  0  0  0999 V2000
   59.0272   -5.9382  -10.1268 N   0  0  0  0  0  0  0  0  0  0  0  0
   60.1555   -6.2888   -9.3679 C   0  0  0  0  0  0  0  0  0  0  0  0
   60.3031   -6.0379   -8.1536 O   0  0  0  0  0  0  0  0  0  0  0  0
   61.2115   -6.9926  -10.0676 N   0  0  0  0  0  0  0  0  0  0  0  0
   58.9946   -6.2121  -11.1669 H   0  0  0  0  0  0  0  0  0  0  0  0
   61.1260   -7.2191  -11.0770 H   0  0  0  0  0  0  0  0  0  0  0  0
   62.3984   -7.3848   -9.3560 C   0  0  0  0  0  0  0  0  0  0  0  0
   63.1613   -6.2303   -8.7922 C   0  0  0  0  0  0  0  0  0  0  0  0
   63.3416   -6.2236   -7.3145 C   0  0  0  0  0  0  0  0  0  0  0  0
   63.5079   -7.5024   -6.7109 N   0  0  0  0  0  0  0  0  0  0  0  0
   63.1846   -8.7288   -7.4130 C   0  0  0  0  0  0  0  0  0  0  0  0
   62.0132   -8.4100   -8.3145 C   0  0  0  0  0  0  0  0  0  0  0  0
   63.9999   -7.6203   -5.3874 C   0  0  0  0  0  0  0  0  0  0  0  0
   64.1655   -8.7251   -4.8108 O   0  0  0  0  0  0  0  0  0  0  0  0
   64.3409   -6.4083   -4.6293 C   0  0  0  0  0  0  0  0  0  0  0  0
   65.1915   -6.6573   -3.4076 C   0  0  0  0  0  0  0  0  0  0  0  0
   65.7534   -5.9180   -4.5808 C   0  0  0  0  0  0  0  0  0  0  0  0
   55.7190   -3.8452   -8.7475 C   0  0  0  0  0  0  0  0  0  0  0  0
   56.4842   -4.5230   -7.8300 C   0  0  0  0  0  0  0  0  0  0  0  0
   57.6014   -5.2241   -8.2555 C   0  0  0  0  0  0  0  0  0  0  0  0
   57.9245   -5.2310   -9.5824 C   0  0  0  0  0  0  0  0  0  0  0  0
   57.1421   -4.5372  -10.5213 C   0  0  0  0  0  0  0  0  0  0  0  0
   56.0478   -3.8548  -10.0753 C   0  0  0  0  0  0  0  0  0  0  0  0
   54.5902   -3.1331   -8.3404 O   0  0  0  0  0  0  0  0  0  0  0  0
   53.2697   -4.9677   -8.2941 F   0  0  0  0  0  0  0  0  0  0  0  0
   53.2891   -3.6256   -8.6009 C   0  0  0  0  0  0  0  0  0  0  0  0
   52.3530   -2.9962   -7.8054 F   0  0  0  0  0  0  0  0  0  0  0  0
   52.9528   -3.3777   -9.9168 F   0  0  0  0  0  0  0  0  0  0  0  0
 25 26  1  0  0  0
 26 27  1  0  0  0
 26 28  1  0  0  0
 26 24  1  0  0  0
 24 18  1  0  0  0
 18 19  2  0  0  0
 19 20  1  0  0  0
 20 21  2  0  0  0
 21  1  1  0  0  0
  1  2  1  0  0  0
  2  3  2  0  0  0
  2  4  1  0  0  0
  4  7  1  0  0  0
  7  8  1  0  0  0
  8  9  1  0  0  0
  9 10  1  0  0  0
 10 11  1  0  0  0
 11 12  1  0  0  0
 10 13  1  0  0  0
 13 14  2  0  0  0
 13 15  1  0  0  0
 15 16  1  0  0  0
 16 17  1  0  0  0
 21 22  1  0  0  0
 22 23  2  0  0  0
 23 18  1  0  0  0
 12  7  1  0  0  0
 17 15  1  0  0  0
  1  5  1  0  0  0
  4  6  1  0  0  0
M  END
> <minimizedAffinity>
-6.85313

> <CNNscore>
0.2510144711

> <CNNaffinity>
4.4542112350

> <CNN_VS>
1.1180714369

> <CNNaffinity_variance>
0.3615030646

$$$$
[H]c1c([H])c(N([H])C(=O)N([H])C2([H])C([H])([H])C([H])([H])N(C(=O)C3([H])C([H])([H])C3([H])[H])C([H])([H])C2([H])[H])c([H])c([H])c1OC(F)(F)F


 28 30  0  0  0  0  0  0  0  0999 V2000
   56.0123   -3.6494   -9.8110 N   0  0  0  0  0  0  0  0  0  0  0  0
   54.7333   -3.9148   -9.2957 C   0  0  0  0  0  0  0  0  0  0  0  0
   54.4699   -4.8169   -8.4735 O   0  0  0  0  0  0  0  0  0  0  0  0
   53.6577   -3.0660   -9.7675 N   0  0  0  0  0  0  0  0  0  0  0  0
   56.1340   -2.8390  -10.5083 H   0  0  0  0  0  0  0  0  0  0  0  0
   53.8367   -2.3056  -10.4510 H   0  0  0  0  0  0  0  0  0  0  0  0
   52.3196   -3.2774   -9.2840 C   0  0  0  0  0  0  0  0  0  0  0  0
   52.0908   -4.6556   -8.7537 C   0  0  0  0  0  0  0  0  0  0  0  0
   51.6774   -4.7479   -7.3266 C   0  0  0  0  0  0  0  0  0  0  0  0
   50.8358   -3.6974   -6.8625 N   0  0  0  0  0  0  0  0  0  0  0  0
   50.6735   -2.4618   -7.6032 C   0  0  0  0  0  0  0  0  0  0  0  0
   51.9976   -2.1926   -8.2822 C   0  0  0  0  0  0  0  0  0  0  0  0
   50.1210   -3.8257   -5.6459 C   0  0  0  0  0  0  0  0  0  0  0  0
   49.3651   -2.9284   -5.1942 O   0  0  0  0  0  0  0  0  0  0  0  0
   50.2513   -5.0569   -4.8541 C   0  0  0  0  0  0  0  0  0  0  0  0
   51.2816   -4.9827   -3.7536 C   0  0  0  0  0  0  0  0  0  0  0  0
   49.8265   -5.0832   -3.4199 C   0  0  0  0  0  0  0  0  0  0  0  0
   59.4484   -5.8236   -8.9784 C   0  0  0  0  0  0  0  0  0  0  0  0
   58.6128   -5.5097   -7.9344 C   0  0  0  0  0  0  0  0  0  0  0  0
   57.4520   -4.7930   -8.1788 C   0  0  0  0  0  0  0  0  0  0  0  0
   57.1567   -4.4088   -9.4557 C   0  0  0  0  0  0  0  0  0  0  0  0
   58.0111   -4.7303  -10.5241 C   0  0  0  0  0  0  0  0  0  0  0  0
   59.1471   -5.4369  -10.2555 C   0  0  0  0  0  0  0  0  0  0  0  0
   60.6220   -6.5444   -8.7542 O   0  0  0  0  0  0  0  0  0  0  0  0
   59.8416   -8.2051  -10.0752 F   0  0  0  0  0  0  0  0  0  0  0  0
   60.9924   -7.6107   -9.6081 C   0  0  0  0  0  0  0  0  0  0  0  0
   61.7021   -7.1485  -10.6980 F   0  0  0  0  0  0  0  0  0  0  0  0
   61.8050   -8.4930   -8.9246 F   0  0  0  0  0  0  0  0  0  0  0  0
 25 26  1  0  0  0
 26 27  1  0  0  0
 26 28  1  0  0  0
 26 24  1  0  0  0
 24 18  1  0  0  0
 18 19  2  0  0  0
 19 20  1  0  0  0
 20 21  2  0  0  0
 21  1  1  0  0  0
  1  2  1  0  0  0
  2  3  2  0  0  0
  2  4  1  0  0  0
  4  7  1  0  0  0
  7  8  1  0  0  0
  8  9  1  0  0  0
  9 10  1  0  0  0
 10 11  1  0  0  0
 11 12  1  0  0  0
 10 13  1  0  0  0
 13 14  2  0  0  0
 13 15  1  0  0  0
 15 16  1  0  0  0
 16 17  1  0  0  0
 21 22  1  0  0  0
 22 23  2  0  0  0
 23 18  1  0  0  0
 12  7  1  0  0  0
 17 15  1  0  0  0
  1  5  1  0  0  0
  4  6  1  0  0  0
M  END
> <minimizedAffinity>
-6.89340

> <CNNscore>
0.2488692552

> <CNNaffinity>
5.7297577858

> <CNN_VS>
1.4259605408

> <CNNaffinity_variance>
0.1303335726

$$$$
[H]c1c([H])c(N([H])C(=O)N([H])C2([H])C([H])([H])C([H])([H])N(C(=O)C3([H])C([H])([H])C3([H])[H])C([H])([H])C2([H])[H])c([H])c([H])c1OC(F)(F)F


 28 30  0  0  0  0  0  0  0  0999 V2000
   57.7484   -5.2210   -9.3729 N   0  0  0  0  0  0  0  0  0  0  0  0
   56.6621   -5.2131   -8.4833 C   0  0  0  0  0  0  0  0  0  0  0  0
   55.5145   -4.8089   -8.7641 O   0  0  0  0  0  0  0  0  0  0  0  0
   56.9165   -5.7159   -7.1482 N   0  0  0  0  0  0  0  0  0  0  0  0
   58.6958   -5.6019   -9.0333 H   0  0  0  0  0  0  0  0  0  0  0  0
   57.8573   -6.0604   -6.8765 H   0  0  0  0  0  0  0  0  0  0  0  0
   55.8519   -5.7392   -6.1813 C   0  0  0  0  0  0  0  0  0  0  0  0
   55.4717   -7.1184   -5.7501 C   0  0  0  0  0  0  0  0  0  0  0  0
   55.6112   -7.4121   -4.2973 C   0  0  0  0  0  0  0  0  0  0  0  0
   55.3229   -6.3272   -3.4216 N   0  0  0  0  0  0  0  0  0  0  0  0
   55.2390   -4.9603   -3.8972 C   0  0  0  0  0  0  0  0  0  0  0  0
   56.2342   -4.8389   -5.0291 C   0  0  0  0  0  0  0  0  0  0  0  0
   55.1069   -6.5499   -2.0391 C   0  0  0  0  0  0  0  0  0  0  0  0
   54.8483   -5.6268   -1.2257 O   0  0  0  0  0  0  0  0  0  0  0  0
   55.1827   -7.9164   -1.5037 C   0  0  0  0  0  0  0  0  0  0  0  0
   56.5075   -8.2633   -0.8690 C   0  0  0  0  0  0  0  0  0  0  0  0
   55.2751   -8.1475   -0.0285 C   0  0  0  0  0  0  0  0  0  0  0  0
   57.2529   -3.7685  -13.2293 C   0  0  0  0  0  0  0  0  0  0  0  0
   58.5323   -3.9875  -12.7801 C   0  0  0  0  0  0  0  0  0  0  0  0
   58.7331   -4.4813  -11.5008 C   0  0  0  0  0  0  0  0  0  0  0  0
   57.6543   -4.7422  -10.7050 C   0  0  0  0  0  0  0  0  0  0  0  0
   56.3451   -4.5187  -11.1645 C   0  0  0  0  0  0  0  0  0  0  0  0
   56.1760   -4.0325  -12.4282 C   0  0  0  0  0  0  0  0  0  0  0  0
   57.0286   -3.2719  -14.5139 O   0  0  0  0  0  0  0  0  0  0  0  0
   56.1360   -5.3007  -14.9600 F   0  0  0  0  0  0  0  0  0  0  0  0
   56.5070   -4.1048  -15.5326 C   0  0  0  0  0  0  0  0  0  0  0  0
   55.3834   -3.5430  -16.1044 F   0  0  0  0  0  0  0  0  0  0  0  0
   57.4479   -4.2640  -16.5303 F   0  0  0  0  0  0  0  0  0  0  0  0
 25 26  1  0  0  0
 26 27  1  0  0  0
 26 28  1  0  0  0
 26 24  1  0  0  0
 24 18  1  0  0  0
 18 19  2  0  0  0
 19 20  1  0  0  0
 20 21  2  0  0  0
 21  1  1  0  0  0
  1  2  1  0  0  0
  2  3  2  0  0  0
  2  4  1  0  0  0
  4  7  1  0  0  0
  7  8  1  0  0  0
  8  9  1  0  0  0
  9 10  1  0  0  0
 10 11  1  0  0  0
 11 12  1  0  0  0
 10 13  1  0  0  0
 13 14  2  0  0  0
 13 15  1  0  0  0
 15 16  1  0  0  0
 16 17  1  0  0  0
 21 22  1  0  0  0
 22 23  2  0  0  0
 23 18  1  0  0  0
 12  7  1  0  0  0
 17 15  1  0  0  0
  1  5  1  0  0  0
  4  6  1  0  0  0
M  END
> <minimizedAffinity>
-6.66737

> <CNNscore>
0.2462431192

> <CNNaffinity>
5.0915327072

> <CNN_VS>
1.2537548542

> <CNNaffinity_variance>
0.0597882457

$$$$
[H]c1c([H])c(N([H])C(=O)N([H])C2([H])C([H])([H])C([H])([H])N(C(=O)C3([H])C([H])([H])C3([H])[H])C([H])([H])C2([H])[H])c([H])c([H])c1OC(F)(F)F


 28 30  0  0  0  0  0  0  0  0999 V2000
   56.3968   -3.4644  -10.5979 N   0  0  0  0  0  0  0  0  0  0  0  0
   55.2761   -4.1893  -10.1617 C   0  0  0  0  0  0  0  0  0  0  0  0
   54.5767   -4.9252  -10.8887 O   0  0  0  0  0  0  0  0  0  0  0  0
   54.9262   -4.0574   -8.7616 N   0  0  0  0  0  0  0  0  0  0  0  0
   56.9387   -2.8666   -9.8860 H   0  0  0  0  0  0  0  0  0  0  0  0
   55.4829   -3.4550   -8.1254 H   0  0  0  0  0  0  0  0  0  0  0  0
   53.7903   -4.7703   -8.2415 C   0  0  0  0  0  0  0  0  0  0  0  0
   54.1349   -5.7040   -7.1268 C   0  0  0  0  0  0  0  0  0  0  0  0
   53.4584   -5.4482   -5.8256 C   0  0  0  0  0  0  0  0  0  0  0  0
   52.1219   -4.9655   -5.9134 N   0  0  0  0  0  0  0  0  0  0  0  0
   51.5782   -4.4360   -7.1486 C   0  0  0  0  0  0  0  0  0  0  0  0
   52.7259   -3.7643   -7.8684 C   0  0  0  0  0  0  0  0  0  0  0  0
   51.2686   -4.9858   -4.7825 C   0  0  0  0  0  0  0  0  0  0  0  0
   50.0815   -4.5726   -4.8087 O   0  0  0  0  0  0  0  0  0  0  0  0
   51.7701   -5.5100   -3.5044 C   0  0  0  0  0  0  0  0  0  0  0  0
   50.6900   -5.9275   -2.5363 C   0  0  0  0  0  0  0  0  0  0  0  0
   51.5876   -6.9529   -3.1539 C   0  0  0  0  0  0  0  0  0  0  0  0
   57.9119   -3.5986  -14.4597 C   0  0  0  0  0  0  0  0  0  0  0  0
   56.5620   -3.4001  -14.3011 C   0  0  0  0  0  0  0  0  0  0  0  0
   56.0246   -3.3404  -13.0250 C   0  0  0  0  0  0  0  0  0  0  0  0
   56.8465   -3.4807  -11.9433 C   0  0  0  0  0  0  0  0  0  0  0  0
   58.2277   -3.6832  -12.1053 C   0  0  0  0  0  0  0  0  0  0  0  0
   58.7305   -3.7376  -13.3726 C   0  0  0  0  0  0  0  0  0  0  0  0
   58.4733   -3.6619  -15.7356 O   0  0  0  0  0  0  0  0  0  0  0  0
   58.6030   -4.8529  -17.6531 F   0  0  0  0  0  0  0  0  0  0  0  0
   57.7340   -4.1738  -16.8286 C   0  0  0  0  0  0  0  0  0  0  0  0
   56.7720   -5.0664  -16.4009 F   0  0  0  0  0  0  0  0  0  0  0  0
   57.0864   -3.1410  -17.4766 F   0  0  0  0  0  0  0  0  0  0  0  0
 25 26  1  0  0  0
 26 27  1  0  0  0
 26 28  1  0  0  0
 26 24  1  0  0  0
 24 18  1  0  0  0
 18 19  2  0  0  0
 19 20  1  0  0  0
 20 21  2  0  0  0
 21  1  1  0  0  0
  1  2  1  0  0  0
  2  3  2  0  0  0
  2  4  1  0  0  0
  4  7  1  0  0  0
  7  8  1  0  0  0
  8  9  1  0  0  0
  9 10  1  0  0  0
 10 11  1  0  0  0
 11 12  1  0  0  0
 10 13  1  0  0  0
 13 14  2  0  0  0
 13 15  1  0  0  0
 15 16  1  0  0  0
 16 17  1  0  0  0
 21 22  1  0  0  0
 22 23  2  0  0  0
 23 18  1  0  0  0
 12  7  1  0  0  0
 17 15  1  0  0  0
  1  5  1  0  0  0
  4  6  1  0  0  0
M  END
> <minimizedAffinity>
-5.89527

> <CNNscore>
0.2411096692

> <CNNaffinity>
5.7119674683

> <CNN_VS>
1.3772106171

> <CNNaffinity_variance>
0.1844916791

$$$$
[H]c1c([H])c(N([H])C(=O)N([H])C2([H])C([H])([H])C([H])([H])N(C(=O)C3([H])C([H])([H])C3([H])[H])C([H])([H])C2([H])[H])c([H])c([H])c1OC(F)(F)F


 28 30  0  0  0  0  0  0  0  0999 V2000
   53.2339   -2.9687   -8.7456 N   0  0  0  0  0  0  0  0  0  0  0  0
   54.0598   -3.8750   -9.4300 C   0  0  0  0  0  0  0  0  0  0  0  0
   53.9822   -5.1179   -9.3391 O   0  0  0  0  0  0  0  0  0  0  0  0
   55.0678   -3.3013  -10.2990 N   0  0  0  0  0  0  0  0  0  0  0  0
   53.3769   -1.9139   -8.9031 H   0  0  0  0  0  0  0  0  0  0  0  0
   55.1638   -2.2728  -10.4008 H   0  0  0  0  0  0  0  0  0  0  0  0
   55.9511   -4.1671  -11.0332 C   0  0  0  0  0  0  0  0  0  0  0  0
   56.0833   -3.7962  -12.4746 C   0  0  0  0  0  0  0  0  0  0  0  0
   57.4563   -3.4588  -12.9407 C   0  0  0  0  0  0  0  0  0  0  0  0
   58.5095   -4.2011  -12.3351 N   0  0  0  0  0  0  0  0  0  0  0  0
   58.3058   -4.9713  -11.1240 C   0  0  0  0  0  0  0  0  0  0  0  0
   57.2761   -4.2223  -10.3083 C   0  0  0  0  0  0  0  0  0  0  0  0
   59.8078   -4.2111  -12.9023 C   0  0  0  0  0  0  0  0  0  0  0  0
   60.7701   -4.8508  -12.4069 O   0  0  0  0  0  0  0  0  0  0  0  0
   60.0698   -3.4451  -14.1288 C   0  0  0  0  0  0  0  0  0  0  0  0
   61.1717   -2.4218  -14.0000 C   0  0  0  0  0  0  0  0  0  0  0  0
   61.3556   -3.6232  -14.8727 C   0  0  0  0  0  0  0  0  0  0  0  0
   50.4156   -4.3112   -6.0103 C   0  0  0  0  0  0  0  0  0  0  0  0
   50.0947   -3.2271   -6.7903 C   0  0  0  0  0  0  0  0  0  0  0  0
   51.0091   -2.7590   -7.7206 C   0  0  0  0  0  0  0  0  0  0  0  0
   52.2172   -3.3831   -7.8472 C   0  0  0  0  0  0  0  0  0  0  0  0
   52.5456   -4.4926   -7.0497 C   0  0  0  0  0  0  0  0  0  0  0  0
   51.6269   -4.9330   -6.1420 C   0  0  0  0  0  0  0  0  0  0  0  0
   49.5095   -4.7985   -5.0676 O   0  0  0  0  0  0  0  0  0  0  0  0
   48.9869   -2.7704   -4.2158 F   0  0  0  0  0  0  0  0  0  0  0  0
   49.2446   -4.0800   -3.8773 C   0  0  0  0  0  0  0  0  0  0  0  0
   48.1287   -4.5786   -3.2360 F   0  0  0  0  0  0  0  0  0  0  0  0
   50.3133   -4.2033   -3.0120 F   0  0  0  0  0  0  0  0  0  0  0  0
 25 26  1  0  0  0
 26 27  1  0  0  0
 26 28  1  0  0  0
 26 24  1  0  0  0
 24 18  1  0  0  0
 18 19  2  0  0  0
 19 20  1  0  0  0
 20 21  2  0  0  0
 21  1  1  0  0  0
  1  2  1  0  0  0
  2  3  2  0  0  0
  2  4  1  0  0  0
  4  7  1  0  0  0
  7  8  1  0  0  0
  8  9  1  0  0  0
  9 10  1  0  0  0
 10 11  1  0  0  0
 11 12  1  0  0  0
 10 13  1  0  0  0
 13 14  2  0  0  0
 13 15  1  0  0  0
 15 16  1  0  0  0
 16 17  1  0  0  0
 21 22  1  0  0  0
 22 23  2  0  0  0
 23 18  1  0  0  0
 12  7  1  0  0  0
 17 15  1  0  0  0
  1  5  1  0  0  0
  4  6  1  0  0  0
M  END
> <minimizedAffinity>
-7.79916

> <CNNscore>
0.2398606986

> <CNNaffinity>
5.7157297134

> <CNN_VS>
1.3709789515

> <CNNaffinity_variance>
0.0451424792

$$$$
[H]c1c([H])c(N([H])C(=O)N([H])C2([H])C([H])([H])C([H])([H])N(C(=O)C3([H])C([H])([H])C3([H])[H])C([H])([H])C2([H])[H])c([H])c([H])c1OC(F)(F)F


 28 30  0  0  0  0  0  0  0  0999 V2000
   56.7161   -4.4575   -9.8249 N   0  0  0  0  0  0  0  0  0  0  0  0
   57.5849   -5.2809   -9.0908 C   0  0  0  0  0  0  0  0  0  0  0  0
   57.3606   -5.7040   -7.9376 O   0  0  0  0  0  0  0  0  0  0  0  0
   58.8256   -5.6531   -9.7407 N   0  0  0  0  0  0  0  0  0  0  0  0
   57.0002   -4.1568  -10.8183 H   0  0  0  0  0  0  0  0  0  0  0  0
   59.0483   -5.3212  -10.6987 H   0  0  0  0  0  0  0  0  0  0  0  0
   59.7659   -6.4950   -9.0508 C   0  0  0  0  0  0  0  0  0  0  0  0
   60.1080   -7.7415   -9.8005 C   0  0  0  0  0  0  0  0  0  0  0  0
   61.5440   -7.9230  -10.1487 C   0  0  0  0  0  0  0  0  0  0  0  0
   62.4746   -7.4362   -9.1874 N   0  0  0  0  0  0  0  0  0  0  0  0
   62.0774   -6.5322   -8.1260 C   0  0  0  0  0  0  0  0  0  0  0  0
   60.9765   -5.6641   -8.6925 C   0  0  0  0  0  0  0  0  0  0  0  0
   63.8368   -7.8228   -9.2374 C   0  0  0  0  0  0  0  0  0  0  0  0
   64.6965   -7.4220   -8.4123 O   0  0  0  0  0  0  0  0  0  0  0  0
   64.2937   -8.7357  -10.2946 C   0  0  0  0  0  0  0  0  0  0  0  0
   65.0137   -8.0572  -11.4344 C   0  0  0  0  0  0  0  0  0  0  0  0
   65.7549   -8.9723  -10.5115 C   0  0  0  0  0  0  0  0  0  0  0  0
   53.0505   -3.3237   -8.2423 C   0  0  0  0  0  0  0  0  0  0  0  0
   53.9157   -2.3350   -8.6430 C   0  0  0  0  0  0  0  0  0  0  0  0
   55.1440   -2.6789   -9.1848 C   0  0  0  0  0  0  0  0  0  0  0  0
   55.4762   -3.9975   -9.3115 C   0  0  0  0  0  0  0  0  0  0  0  0
   54.5910   -5.0094   -8.9021 C   0  0  0  0  0  0  0  0  0  0  0  0
   53.3881   -4.6429   -8.3724 C   0  0  0  0  0  0  0  0  0  0  0  0
   51.8089   -2.9992   -7.6943 O   0  0  0  0  0  0  0  0  0  0  0  0
   50.3925   -3.0626   -5.9333 F   0  0  0  0  0  0  0  0  0  0  0  0
   51.1975   -3.8408   -6.7346 C   0  0  0  0  0  0  0  0  0  0  0  0
   50.3991   -4.7879   -7.3437 F   0  0  0  0  0  0  0  0  0  0  0  0
   52.1685   -4.5118   -6.0184 F   0  0  0  0  0  0  0  0  0  0  0  0
 25 26  1  0  0  0
 26 27  1  0  0  0
 26 28  1  0  0  0
 26 24  1  0  0  0
 24 18  1  0  0  0
 18 19  2  0  0  0
 19 20  1  0  0  0
 20 21  2  0  0  0
 21  1  1  0  0  0
  1  2  1  0  0  0
  2  3  2  0  0  0
  2  4  1  0  0  0
  4  7  1  0  0  0
  7  8  1  0  0  0
  8  9  1  0  0  0
  9 10  1  0  0  0
 10 11  1  0  0  0
 11 12  1  0  0  0
 10 13  1  0  0  0
 13 14  2  0  0  0
 13 15  1  0  0  0
 15 16  1  0  0  0
 16 17  1  0  0  0
 21 22  1  0  0  0
 22 23  2  0  0  0
 23 18  1  0  0  0
 12  7  1  0  0  0
 17 15  1  0  0  0
  1  5  1  0  0  0
  4  6  1  0  0  0
M  END
> <minimizedAffinity>
-4.99712

> <CNNscore>
0.2300774306

> <CNNaffinity>
4.9761290550

> <CNN_VS>
1.1448949575

> <CNNaffinity_variance>
0.1285852343

$$$$
[H]c1c([H])c(N([H])C(=O)N([H])C2([H])C([H])([H])C([H])([H])N(C(=O)C3([H])C([H])([H])C3([H])[H])C([H])([H])C2([H])[H])c([H])c([H])c1OC(F)(F)F


 28 30  0  0  0  0  0  0  0  0999 V2000
   54.1398   -3.0729   -8.5677 N   0  0  0  0  0  0  0  0  0  0  0  0
   54.7226   -3.8368   -9.5916 C   0  0  0  0  0  0  0  0  0  0  0  0
   54.2976   -4.9431   -9.9848 O   0  0  0  0  0  0  0  0  0  0  0  0
   55.9020   -3.2790  -10.2226 N   0  0  0  0  0  0  0  0  0  0  0  0
   54.5793   -2.1245   -8.3121 H   0  0  0  0  0  0  0  0  0  0  0  0
   56.2858   -2.3621   -9.9235 H   0  0  0  0  0  0  0  0  0  0  0  0
   56.5542   -4.0042  -11.2798 C   0  0  0  0  0  0  0  0  0  0  0  0
   55.7333   -4.1056  -12.5243 C   0  0  0  0  0  0  0  0  0  0  0  0
   56.3321   -3.5167  -13.7534 C   0  0  0  0  0  0  0  0  0  0  0  0
   57.7463   -3.6375  -13.8655 N   0  0  0  0  0  0  0  0  0  0  0  0
   58.5774   -3.9892  -12.7310 C   0  0  0  0  0  0  0  0  0  0  0  0
   57.9146   -3.3881  -11.5120 C   0  0  0  0  0  0  0  0  0  0  0  0
   58.3964   -3.4142  -15.1044 C   0  0  0  0  0  0  0  0  0  0  0  0
   59.6409   -3.5094  -15.2553 O   0  0  0  0  0  0  0  0  0  0  0  0
   57.6014   -3.0525  -16.2864 C   0  0  0  0  0  0  0  0  0  0  0  0
   57.9031   -3.8758  -17.5149 C   0  0  0  0  0  0  0  0  0  0  0  0
   56.5787   -3.9996  -16.8297 C   0  0  0  0  0  0  0  0  0  0  0  0
   50.9275   -4.4420   -6.3240 C   0  0  0  0  0  0  0  0  0  0  0  0
   50.7149   -3.3928   -7.1847 C   0  0  0  0  0  0  0  0  0  0  0  0
   51.7636   -2.9173   -7.9559 C   0  0  0  0  0  0  0  0  0  0  0  0
   52.9943   -3.4994   -7.8477 C   0  0  0  0  0  0  0  0  0  0  0  0
   53.2120   -4.5732   -6.9676 C   0  0  0  0  0  0  0  0  0  0  0  0
   52.1621   -5.0219   -6.2204 C   0  0  0  0  0  0  0  0  0  0  0  0
   49.8854   -4.9361   -5.5386 O   0  0  0  0  0  0  0  0  0  0  0  0
   50.7133   -4.4210   -3.4987 F   0  0  0  0  0  0  0  0  0  0  0  0
   49.5842   -4.3543   -4.2839 C   0  0  0  0  0  0  0  0  0  0  0  0
   49.2444   -3.0238   -4.4240 F   0  0  0  0  0  0  0  0  0  0  0  0
   48.5053   -5.0032   -3.7174 F   0  0  0  0  0  0  0  0  0  0  0  0
 25 26  1  0  0  0
 26 27  1  0  0  0
 26 28  1  0  0  0
 26 24  1  0  0  0
 24 18  1  0  0  0
 18 19  2  0  0  0
 19 20  1  0  0  0
 20 21  2  0  0  0
 21  1  1  0  0  0
  1  2  1  0  0  0
  2  3  2  0  0  0
  2  4  1  0  0  0
  4  7  1  0  0  0
  7  8  1  0  0  0
  8  9  1  0  0  0
  9 10  1  0  0  0
 10 11  1  0  0  0
 11 12  1  0  0  0
 10 13  1  0  0  0
 13 14  2  0  0  0
 13 15  1  0  0  0
 15 16  1  0  0  0
 16 17  1  0  0  0
 21 22  1  0  0  0
 22 23  2  0  0  0
 23 18  1  0  0  0
 12  7  1  0  0  0
 17 15  1  0  0  0
  1  5  1  0  0  0
  4  6  1  0  0  0
M  END
> <minimizedAffinity>
-7.33338

> <CNNscore>
0.2298516035

> <CNNaffinity>
5.6640782356

> <CNN_VS>
1.3018974066

> <CNNaffinity_variance>
0.0316720232

$$$$
[H]Oc1c(F)c(C([H])([H])[C@]2([H])C([H])([H])C([H])([H])C([H])([H])[C@@]2([H])C(=O)N([H])C2(c3c([H])c([H])c(Br)c([H])c3[H])C([H])([H])C2([H])[H])c([H])c([H])c1OC([H])([H])[H]


 31 34  0  0  0  0  0  0  0  0999 V2000
   56.1430   -5.2886   -8.2619 C   0  0  0  0  0  0  0  0  0  0  0  0
   55.0696   -4.3383   -8.5658 C   0  0  0  0  0  0  0  0  0  0  0  0
   55.3656   -3.1363   -7.6968 C   0  0  0  0  0  0  0  0  0  0  0  0
   56.3864   -3.5761   -6.6645 C   0  0  0  0  0  0  0  0  0  0  0  0
   56.4355   -5.0866   -6.7685 C   0  0  0  0  0  0  0  0  0  0  0  0
   55.4891   -5.7581   -5.8948 C   0  0  0  0  0  0  0  0  0  0  0  0
   54.7929   -6.6892   -6.4593 O   0  0  0  0  0  0  0  0  0  0  0  0
   55.2187   -5.5450   -4.5375 N   0  0  0  0  0  0  0  0  0  0  0  0
   55.7202   -4.8228   -3.9399 H   0  0  0  0  0  0  0  0  0  0  0  0
   54.2129   -6.3139   -3.8208 C   0  0  0  0  0  0  0  0  0  0  0  0
   54.5444   -7.7989   -3.7688 C   0  0  0  0  0  0  0  0  0  0  0  0
   54.6471   -6.9762   -2.5512 C   0  0  0  0  0  0  0  0  0  0  0  0
   52.8008   -5.8682   -3.8004 C   0  0  0  0  0  0  0  0  0  0  0  0
   52.0887   -5.7165   -2.6453 C   0  0  0  0  0  0  0  0  0  0  0  0
   50.7628   -5.2853   -2.6563 C   0  0  0  0  0  0  0  0  0  0  0  0
   50.1329   -4.9995   -3.8378 C   0  0  0  0  0  0  0  0  0  0  0  0
   48.3228   -4.4067   -3.8122 Br  0  0  0  0  0  0  0  0  0  0  0  0
   50.8401   -5.1483   -5.0215 C   0  0  0  0  0  0  0  0  0  0  0  0
   52.1417   -5.5737   -4.9904 C   0  0  0  0  0  0  0  0  0  0  0  0
   57.4188   -5.1061   -8.9744 C   0  0  0  0  0  0  0  0  0  0  0  0
   57.1684   -3.8809  -13.0336 C   0  0  0  0  0  0  0  0  0  0  0  0
   56.0399   -3.9283  -12.2209 C   0  0  0  0  0  0  0  0  0  0  0  0
   56.1810   -4.3491  -10.9342 C   0  0  0  0  0  0  0  0  0  0  0  0
   57.4134   -4.7405  -10.3807 C   0  0  0  0  0  0  0  0  0  0  0  0
   58.5062   -4.6923  -11.1867 C   0  0  0  0  0  0  0  0  0  0  0  0
   59.7222   -5.1150  -10.7526 F   0  0  0  0  0  0  0  0  0  0  0  0
   58.3720   -4.2581  -12.5178 C   0  0  0  0  0  0  0  0  0  0  0  0
   59.5145   -4.2181  -13.3179 O   0  0  0  0  0  0  0  0  0  0  0  0
   60.3906   -4.5014  -12.9122 H   0  0  0  0  0  0  0  0  0  0  0  0
   56.2983   -4.1249  -15.3106 C   0  0  0  0  0  0  0  0  0  0  0  0
   57.0644   -3.4596  -14.3291 O   0  0  0  0  0  0  0  0  0  0  0  0
 30 31  1  0  0  0
 31 21  1  0  0  0
 21 22  2  0  0  0
 22 23  1  0  0  0
 23 24  2  0  0  0
 24 20  1  0  0  0
 20  1  1  0  0  0
  1  2  1  0  0  0
  2  3  1  0  0  0
  3  4  1  0  0  0
  4  5  1  0  0  0
  5  6  1  0  0  0
  6  7  2  0  0  0
  6  8  1  0  0  0
  8 10  1  0  0  0
 10 11  1  0  0  0
 11 12  1  0  0  0
 10 13  1  0  0  0
 13 14  2  0  0  0
 14 15  1  0  0  0
 15 16  2  0  0  0
 16 17  1  0  0  0
 16 18  1  0  0  0
 18 19  2  0  0  0
 24 25  1  0  0  0
 25 26  1  0  0  0
 25 27  2  0  0  0
 27 28  1  0  0  0
 27 21  1  0  0  0
  5  1  1  0  0  0
 12 10  1  0  0  0
 19 13  1  0  0  0
  8  9  1  0  0  0
 28 29  1  0  0  0
M  END
> <minimizedAffinity>
-8.73000

> <CNNscore>
0.3809794188

> <CNNaffinity>
6.6793580055

> <CNN_VS>
2.5446980000

> <CNNaffinity_variance>
0.0881202444

$$$$
[H]Oc1c(F)c(C([H])([H])[C@]2([H])C([H])([H])C([H])([H])C([H])([H])[C@@]2([H])C(=O)N([H])C2(c3c([H])c([H])c(Br)c([H])c3[H])C([H])([H])C2([H])[H])c([H])c([H])c1OC([H])([H])[H]


 31 34  0  0  0  0  0  0  0  0999 V2000
   53.6821   -4.9929   -5.9254 C   0  0  0  0  0  0  0  0  0  0  0  0
   54.6879   -4.4889   -6.8646 C   0  0  0  0  0  0  0  0  0  0  0  0
   55.1834   -5.7194   -7.5910 C   0  0  0  0  0  0  0  0  0  0  0  0
   54.7096   -6.9230   -6.7984 C   0  0  0  0  0  0  0  0  0  0  0  0
   54.2108   -6.3641   -5.4818 C   0  0  0  0  0  0  0  0  0  0  0  0
   55.2391   -6.2873   -4.4587 C   0  0  0  0  0  0  0  0  0  0  0  0
   56.4489   -6.4281   -4.8912 O   0  0  0  0  0  0  0  0  0  0  0  0
   55.1141   -6.0867   -3.0786 N   0  0  0  0  0  0  0  0  0  0  0  0
   54.1847   -5.9435   -2.5827 H   0  0  0  0  0  0  0  0  0  0  0  0
   56.2698   -6.0528   -2.1956 C   0  0  0  0  0  0  0  0  0  0  0  0
   57.0243   -4.7329   -2.2764 C   0  0  0  0  0  0  0  0  0  0  0  0
   56.2354   -5.0604   -1.0762 C   0  0  0  0  0  0  0  0  0  0  0  0
   56.9920   -7.3002   -1.8558 C   0  0  0  0  0  0  0  0  0  0  0  0
   56.7262   -8.0268   -0.7308 C   0  0  0  0  0  0  0  0  0  0  0  0
   57.4157   -9.2037   -0.4419 C   0  0  0  0  0  0  0  0  0  0  0  0
   58.3879   -9.6670   -1.2872 C   0  0  0  0  0  0  0  0  0  0  0  0
   59.3039  -11.2822   -0.8621 Br  0  0  0  0  0  0  0  0  0  0  0  0
   58.6722   -8.9419   -2.4348 C   0  0  0  0  0  0  0  0  0  0  0  0
   57.9844   -7.7877   -2.7012 C   0  0  0  0  0  0  0  0  0  0  0  0
   52.3245   -5.2101   -6.4531 C   0  0  0  0  0  0  0  0  0  0  0  0
   48.8927   -3.4409   -4.6828 C   0  0  0  0  0  0  0  0  0  0  0  0
   49.4311   -2.9488   -5.8679 C   0  0  0  0  0  0  0  0  0  0  0  0
   50.5442   -3.5457   -6.3750 C   0  0  0  0  0  0  0  0  0  0  0  0
   51.1818   -4.6387   -5.7610 C   0  0  0  0  0  0  0  0  0  0  0  0
   50.6472   -5.1066   -4.6027 C   0  0  0  0  0  0  0  0  0  0  0  0
   51.2375   -6.1155   -3.9101 F   0  0  0  0  0  0  0  0  0  0  0  0
   49.4964   -4.4980   -4.0703 C   0  0  0  0  0  0  0  0  0  0  0  0
   48.9715   -5.0047   -2.8808 O   0  0  0  0  0  0  0  0  0  0  0  0
   49.4361   -5.7860   -2.4494 H   0  0  0  0  0  0  0  0  0  0  0  0
   46.6239   -3.5975   -3.7722 C   0  0  0  0  0  0  0  0  0  0  0  0
   47.7735   -2.8689   -4.1473 O   0  0  0  0  0  0  0  0  0  0  0  0
 30 31  1  0  0  0
 31 21  1  0  0  0
 21 22  2  0  0  0
 22 23  1  0  0  0
 23 24  2  0  0  0
 24 20  1  0  0  0
 20  1  1  0  0  0
  1  2  1  0  0  0
  2  3  1  0  0  0
  3  4  1  0  0  0
  4  5  1  0  0  0
  5  6  1  0  0  0
  6  7  2  0  0  0
  6  8  1  0  0  0
  8 10  1  0  0  0
 10 11  1  0  0  0
 11 12  1  0  0  0
 10 13  1  0  0  0
 13 14  2  0  0  0
 14 15  1  0  0  0
 15 16  2  0  0  0
 16 17  1  0  0  0
 16 18  1  0  0  0
 18 19  2  0  0  0
 24 25  1  0  0  0
 25 26  1  0  0  0
 25 27  2  0  0  0
 27 28  1  0  0  0
 27 21  1  0  0  0
  5  1  1  0  0  0
 12 10  1  0  0  0
 19 13  1  0  0  0
  8  9  1  0  0  0
 28 29  1  0  0  0
M  END
> <minimizedAffinity>
-7.76513

> <CNNscore>
0.2942269146

> <CNNaffinity>
6.7967424393

> <CNN_VS>
1.9997845888

> <CNNaffinity_variance>
0.3130978048

$$$$
[H]Oc1c(F)c(C([H])([H])[C@]2([H])C([H])([H])C([H])([H])C([H])([H])[C@@]2([H])C(=O)N([H])C2(c3c([H])c([H])c(Br)c([H])c3[H])C([H])([H])C2([H])[H])c([H])c([H])c1OC([H])([H])[H]


 31 34  0  0  0  0  0  0  0  0999 V2000
   57.5123   -5.4260   -8.6804 C   0  0  0  0  0  0  0  0  0  0  0  0
   56.9617   -5.3873  -10.0379 C   0  0  0  0  0  0  0  0  0  0  0  0
   56.5015   -3.9586  -10.2235 C   0  0  0  0  0  0  0  0  0  0  0  0
   56.4740   -3.3196   -8.8480 C   0  0  0  0  0  0  0  0  0  0  0  0
   56.6291   -4.4665   -7.8706 C   0  0  0  0  0  0  0  0  0  0  0  0
   55.3646   -5.0496   -7.4570 C   0  0  0  0  0  0  0  0  0  0  0  0
   55.4576   -5.9597   -6.5440 O   0  0  0  0  0  0  0  0  0  0  0  0
   54.0655   -4.7745   -7.9009 N   0  0  0  0  0  0  0  0  0  0  0  0
   53.8335   -4.0438   -8.6375 H   0  0  0  0  0  0  0  0  0  0  0  0
   52.9051   -5.4774   -7.3756 C   0  0  0  0  0  0  0  0  0  0  0  0
   52.6242   -6.7744   -8.1220 C   0  0  0  0  0  0  0  0  0  0  0  0
   53.1519   -6.8127   -6.7471 C   0  0  0  0  0  0  0  0  0  0  0  0
   51.7930   -4.7269   -6.7486 C   0  0  0  0  0  0  0  0  0  0  0  0
   51.2636   -3.5933   -7.2954 C   0  0  0  0  0  0  0  0  0  0  0  0
   50.2092   -2.9131   -6.6874 C   0  0  0  0  0  0  0  0  0  0  0  0
   49.6711   -3.3682   -5.5136 C   0  0  0  0  0  0  0  0  0  0  0  0
   48.2270   -2.4156   -4.7162 Br  0  0  0  0  0  0  0  0  0  0  0  0
   50.1963   -4.5180   -4.9429 C   0  0  0  0  0  0  0  0  0  0  0  0
   51.2325   -5.1721   -5.5549 C   0  0  0  0  0  0  0  0  0  0  0  0
   58.9027   -4.9716   -8.5100 C   0  0  0  0  0  0  0  0  0  0  0  0
   62.0351   -7.7263   -9.3107 C   0  0  0  0  0  0  0  0  0  0  0  0
   61.5219   -7.5668   -8.0272 C   0  0  0  0  0  0  0  0  0  0  0  0
   60.5324   -6.6532   -7.8301 C   0  0  0  0  0  0  0  0  0  0  0  0
   59.9992   -5.8582   -8.8607 C   0  0  0  0  0  0  0  0  0  0  0  0
   60.5121   -6.0222  -10.1082 C   0  0  0  0  0  0  0  0  0  0  0  0
   60.1012   -5.2492  -11.1472 F   0  0  0  0  0  0  0  0  0  0  0  0
   61.5342   -6.9642  -10.3233 C   0  0  0  0  0  0  0  0  0  0  0  0
   62.0369   -7.1094  -11.6169 O   0  0  0  0  0  0  0  0  0  0  0  0
   61.6491   -6.5350  -12.3463 H   0  0  0  0  0  0  0  0  0  0  0  0
   64.3789   -8.4301   -9.2002 C   0  0  0  0  0  0  0  0  0  0  0  0
   63.0259   -8.6371   -9.5459 O   0  0  0  0  0  0  0  0  0  0  0  0
 30 31  1  0  0  0
 31 21  1  0  0  0
 21 22  2  0  0  0
 22 23  1  0  0  0
 23 24  2  0  0  0
 24 20  1  0  0  0
 20  1  1  0  0  0
  1  2  1  0  0  0
  2  3  1  0  0  0
  3  4  1  0  0  0
  4  5  1  0  0  0
  5  6  1  0  0  0
  6  7  2  0  0  0
  6  8  1  0  0  0
  8 10  1  0  0  0
 10 11  1  0  0  0
 11 12  1  0  0  0
 10 13  1  0  0  0
 13 14  2  0  0  0
 14 15  1  0  0  0
 15 16  2  0  0  0
 16 17  1  0  0  0
 16 18  1  0  0  0
 18 19  2  0  0  0
 24 25  1  0  0  0
 25 26  1  0  0  0
 25 27  2  0  0  0
 27 28  1  0  0  0
 27 21  1  0  0  0
  5  1  1  0  0  0
 12 10  1  0  0  0
 19 13  1  0  0  0
  8  9  1  0  0  0
 28 29  1  0  0  0
M  END
> <minimizedAffinity>
-5.83131

> <CNNscore>
0.2595891654

> <CNNaffinity>
6.1023201942

> <CNN_VS>
1.5840961933

> <CNNaffinity_variance>
0.3004810214

$$$$
[H]Oc1c(F)c(C([H])([H])[C@]2([H])C([H])([H])C([H])([H])C([H])([H])[C@@]2([H])C(=O)N([H])C2(c3c([H])c([H])c(Br)c([H])c3[H])C([H])([H])C2([H])[H])c([H])c([H])c1OC([H])([H])[H]


 31 34  0  0  0  0  0  0  0  0999 V2000
   55.6903   -4.6507   -8.3196 C   0  0  0  0  0  0  0  0  0  0  0  0
   55.4964   -3.3606   -7.6520 C   0  0  0  0  0  0  0  0  0  0  0  0
   56.0558   -3.5616   -6.2613 C   0  0  0  0  0  0  0  0  0  0  0  0
   56.2218   -5.0563   -6.0621 C   0  0  0  0  0  0  0  0  0  0  0  0
   55.4820   -5.6987   -7.2174 C   0  0  0  0  0  0  0  0  0  0  0  0
   54.0842   -5.9703   -6.9303 C   0  0  0  0  0  0  0  0  0  0  0  0
   53.8584   -6.4937   -5.7704 O   0  0  0  0  0  0  0  0  0  0  0  0
   52.9501   -5.7524   -7.7221 N   0  0  0  0  0  0  0  0  0  0  0  0
   52.9795   -5.3187   -8.6923 H   0  0  0  0  0  0  0  0  0  0  0  0
   51.6132   -6.1048   -7.2694 C   0  0  0  0  0  0  0  0  0  0  0  0
   50.9794   -7.1954   -8.1221 C   0  0  0  0  0  0  0  0  0  0  0  0
   51.4209   -7.4944   -6.7489 C   0  0  0  0  0  0  0  0  0  0  0  0
   50.7591   -5.0995   -6.5965 C   0  0  0  0  0  0  0  0  0  0  0  0
   50.2965   -3.9799   -7.2265 C   0  0  0  0  0  0  0  0  0  0  0  0
   49.4850   -3.0554   -6.5701 C   0  0  0  0  0  0  0  0  0  0  0  0
   49.1267   -3.2474   -5.2628 C   0  0  0  0  0  0  0  0  0  0  0  0
   48.0114   -1.9655   -4.4015 Br  0  0  0  0  0  0  0  0  0  0  0  0
   49.5875   -4.3787   -4.6061 C   0  0  0  0  0  0  0  0  0  0  0  0
   50.3843   -5.2752   -5.2676 C   0  0  0  0  0  0  0  0  0  0  0  0
   57.0166   -4.9070   -8.9060 C   0  0  0  0  0  0  0  0  0  0  0  0
   57.4625   -3.9353  -13.0167 C   0  0  0  0  0  0  0  0  0  0  0  0
   56.2237   -3.8657  -12.3867 C   0  0  0  0  0  0  0  0  0  0  0  0
   56.1412   -4.2096  -11.0723 C   0  0  0  0  0  0  0  0  0  0  0  0
   57.2474   -4.6336  -10.3143 C   0  0  0  0  0  0  0  0  0  0  0  0
   58.4500   -4.7000  -10.9433 C   0  0  0  0  0  0  0  0  0  0  0  0
   59.5561   -5.1621  -10.3038 F   0  0  0  0  0  0  0  0  0  0  0  0
   58.5470   -4.3461  -12.3011 C   0  0  0  0  0  0  0  0  0  0  0  0
   59.7972   -4.4231  -12.9160 O   0  0  0  0  0  0  0  0  0  0  0  0
   60.5815   -4.7288  -12.3649 H   0  0  0  0  0  0  0  0  0  0  0  0
   56.5968   -3.8638  -15.3073 C   0  0  0  0  0  0  0  0  0  0  0  0
   57.5831   -3.5936  -14.3340 O   0  0  0  0  0  0  0  0  0  0  0  0
 30 31  1  0  0  0
 31 21  1  0  0  0
 21 22  2  0  0  0
 22 23  1  0  0  0
 23 24  2  0  0  0
 24 20  1  0  0  0
 20  1  1  0  0  0
  1  2  1  0  0  0
  2  3  1  0  0  0
  3  4  1  0  0  0
  4  5  1  0  0  0
  5  6  1  0  0  0
  6  7  2  0  0  0
  6  8  1  0  0  0
  8 10  1  0  0  0
 10 11  1  0  0  0
 11 12  1  0  0  0
 10 13  1  0  0  0
 13 14  2  0  0  0
 14 15  1  0  0  0
 15 16  2  0  0  0
 16 17  1  0  0  0
 16 18  1  0  0  0
 18 19  2  0  0  0
 24 25  1  0  0  0
 25 26  1  0  0  0
 25 27  2  0  0  0
 27 28  1  0  0  0
 27 21  1  0  0  0
  5  1  1  0  0  0
 12 10  1  0  0  0
 19 13  1  0  0  0
  8  9  1  0  0  0
 28 29  1  0  0  0
M  END
> <minimizedAffinity>
-7.11791

> <CNNscore>
0.2498892397

> <CNNaffinity>
6.5885214806

> <CNN_VS>
1.6464005709

> <CNNaffinity_variance>
0.1858341545

$$$$
[H]Oc1c(F)c(C([H])([H])[C@]2([H])C([H])([H])C([H])([H])C([H])([H])[C@@]2([H])C(=O)N([H])C2(c3c([H])c([H])c(Br)c([H])c3[H])C([H])([H])C2([H])[H])c([H])c([H])c1OC([H])([H])[H]


 31 34  0  0  0  0  0  0  0  0999 V2000
   55.8625   -5.9436   -6.1578 C   0  0  0  0  0  0  0  0  0  0  0  0
   54.7266   -6.8693   -6.1768 C   0  0  0  0  0  0  0  0  0  0  0  0
   53.7590   -6.3085   -5.1586 C   0  0  0  0  0  0  0  0  0  0  0  0
   54.5234   -5.2892   -4.3351 C   0  0  0  0  0  0  0  0  0  0  0  0
   55.9804   -5.4963   -4.6941 C   0  0  0  0  0  0  0  0  0  0  0  0
   56.6545   -6.4620   -3.8437 C   0  0  0  0  0  0  0  0  0  0  0  0
   56.8831   -7.6079   -4.3962 O   0  0  0  0  0  0  0  0  0  0  0  0
   57.0893   -6.3366   -2.5186 N   0  0  0  0  0  0  0  0  0  0  0  0
   56.9810   -5.4507   -1.9410 H   0  0  0  0  0  0  0  0  0  0  0  0
   57.7416   -7.4292   -1.8135 C   0  0  0  0  0  0  0  0  0  0  0  0
   57.4824   -7.3899   -0.3137 C   0  0  0  0  0  0  0  0  0  0  0  0
   56.8510   -8.4290   -1.1455 C   0  0  0  0  0  0  0  0  0  0  0  0
   58.9989   -8.0140   -2.3335 C   0  0  0  0  0  0  0  0  0  0  0  0
   60.0615   -7.2531   -2.7289 C   0  0  0  0  0  0  0  0  0  0  0  0
   61.2371   -7.8322   -3.2051 C   0  0  0  0  0  0  0  0  0  0  0  0
   61.3586   -9.1932   -3.2901 C   0  0  0  0  0  0  0  0  0  0  0  0
   62.9825   -9.9478   -3.9397 Br  0  0  0  0  0  0  0  0  0  0  0  0
   60.2892   -9.9824   -2.8936 C   0  0  0  0  0  0  0  0  0  0  0  0
   59.1424   -9.3951   -2.4290 C   0  0  0  0  0  0  0  0  0  0  0  0
   55.7412   -4.7203   -6.9687 C   0  0  0  0  0  0  0  0  0  0  0  0
   56.9708   -4.4863  -11.0275 C   0  0  0  0  0  0  0  0  0  0  0  0
   55.6936   -4.0983  -10.6345 C   0  0  0  0  0  0  0  0  0  0  0  0
   55.3517   -4.2161   -9.3223 C   0  0  0  0  0  0  0  0  0  0  0  0
   56.2259   -4.7120   -8.3384 C   0  0  0  0  0  0  0  0  0  0  0  0
   57.4687   -5.0902   -8.7369 C   0  0  0  0  0  0  0  0  0  0  0  0
   58.3523   -5.6412   -7.8643 F   0  0  0  0  0  0  0  0  0  0  0  0
   57.8328   -4.9718  -10.0903 C   0  0  0  0  0  0  0  0  0  0  0  0
   59.1175   -5.3667  -10.4656 O   0  0  0  0  0  0  0  0  0  0  0  0
   59.7341   -5.7211   -9.7540 H   0  0  0  0  0  0  0  0  0  0  0  0
   56.4716   -4.5710  -13.4243 C   0  0  0  0  0  0  0  0  0  0  0  0
   57.3495   -4.3778  -12.3357 O   0  0  0  0  0  0  0  0  0  0  0  0
 30 31  1  0  0  0
 31 21  1  0  0  0
 21 22  2  0  0  0
 22 23  1  0  0  0
 23 24  2  0  0  0
 24 20  1  0  0  0
 20  1  1  0  0  0
  1  2  1  0  0  0
  2  3  1  0  0  0
  3  4  1  0  0  0
  4  5  1  0  0  0
  5  6  1  0  0  0
  6  7  2  0  0  0
  6  8  1  0  0  0
  8 10  1  0  0  0
 10 11  1  0  0  0
 11 12  1  0  0  0
 10 13  1  0  0  0
 13 14  2  0  0  0
 14 15  1  0  0  0
 15 16  2  0  0  0
 16 17  1  0  0  0
 16 18  1  0  0  0
 18 19  2  0  0  0
 24 25  1  0  0  0
 25 26  1  0  0  0
 25 27  2  0  0  0
 27 28  1  0  0  0
 27 21  1  0  0  0
  5  1  1  0  0  0
 12 10  1  0  0  0
 19 13  1  0  0  0
  8  9  1  0  0  0
 28 29  1  0  0  0
M  END
> <minimizedAffinity>
-7.12311

> <CNNscore>
0.2460769713

> <CNNaffinity>
6.0308561325

> <CNN_VS>
1.4840548038

> <CNNaffinity_variance>
0.0466293506

$$$$
[H]Oc1c(F)c(C([H])([H])[C@]2([H])C([H])([H])C([H])([H])C([H])([H])[C@@]2([H])C(=O)N([H])C2(c3c([H])c([H])c(Br)c([H])c3[H])C([H])([H])C2([H])[H])c([H])c([H])c1OC([H])([H])[H]


 31 34  0  0  0  0  0  0  0  0999 V2000
   54.8927   -4.4415   -9.7213 C   0  0  0  0  0  0  0  0  0  0  0  0
   53.5341   -3.8924   -9.7426 C   0  0  0  0  0  0  0  0  0  0  0  0
   53.6748   -2.5013   -9.1659 C   0  0  0  0  0  0  0  0  0  0  0  0
   55.0376   -2.4318   -8.5035 C   0  0  0  0  0  0  0  0  0  0  0  0
   55.5304   -3.8632   -8.4503 C   0  0  0  0  0  0  0  0  0  0  0  0
   55.1459   -4.5631   -7.2369 C   0  0  0  0  0  0  0  0  0  0  0  0
   55.1844   -3.8485   -6.1607 O   0  0  0  0  0  0  0  0  0  0  0  0
   54.7439   -5.8928   -7.0610 N   0  0  0  0  0  0  0  0  0  0  0  0
   54.6535   -6.5943   -7.8547 H   0  0  0  0  0  0  0  0  0  0  0  0
   54.4061   -6.4304   -5.7520 C   0  0  0  0  0  0  0  0  0  0  0  0
   55.0240   -7.8006   -5.5094 C   0  0  0  0  0  0  0  0  0  0  0  0
   55.5351   -6.6217   -4.7887 C   0  0  0  0  0  0  0  0  0  0  0  0
   53.1280   -6.0671   -5.0981 C   0  0  0  0  0  0  0  0  0  0  0  0
   52.9616   -6.0734   -3.7428 C   0  0  0  0  0  0  0  0  0  0  0  0
   51.7490   -5.7164   -3.1545 C   0  0  0  0  0  0  0  0  0  0  0  0
   50.6816   -5.3463   -3.9280 C   0  0  0  0  0  0  0  0  0  0  0  0
   49.0430   -4.8590   -3.0877 Br  0  0  0  0  0  0  0  0  0  0  0  0
   50.8317   -5.3345   -5.3067 C   0  0  0  0  0  0  0  0  0  0  0  0
   52.0306   -5.6890   -5.8661 C   0  0  0  0  0  0  0  0  0  0  0  0
   55.7765   -4.0818  -10.8430 C   0  0  0  0  0  0  0  0  0  0  0  0
   59.7509   -5.5679  -10.6523 C   0  0  0  0  0  0  0  0  0  0  0  0
   58.8390   -5.8063   -9.6286 C   0  0  0  0  0  0  0  0  0  0  0  0
   57.5860   -5.2861   -9.7381 C   0  0  0  0  0  0  0  0  0  0  0  0
   57.1629   -4.5166  -10.8367 C   0  0  0  0  0  0  0  0  0  0  0  0
   58.0648   -4.2890  -11.8272 C   0  0  0  0  0  0  0  0  0  0  0  0
   57.7600   -3.5015  -12.8916 F   0  0  0  0  0  0  0  0  0  0  0  0
   59.3621   -4.8226  -11.7249 C   0  0  0  0  0  0  0  0  0  0  0  0
   60.2629   -4.5722  -12.7607 O   0  0  0  0  0  0  0  0  0  0  0  0
   59.9501   -4.0196  -13.5412 H   0  0  0  0  0  0  0  0  0  0  0  0
   61.4317   -7.0023   -9.5947 C   0  0  0  0  0  0  0  0  0  0  0  0
   61.0160   -6.0782  -10.5777 O   0  0  0  0  0  0  0  0  0  0  0  0
 30 31  1  0  0  0
 31 21  1  0  0  0
 21 22  2  0  0  0
 22 23  1  0  0  0
 23 24  2  0  0  0
 24 20  1  0  0  0
 20  1  1  0  0  0
  1  2  1  0  0  0
  2  3  1  0  0  0
  3  4  1  0  0  0
  4  5  1  0  0  0
  5  6  1  0  0  0
  6  7  2  0  0  0
  6  8  1  0  0  0
  8 10  1  0  0  0
 10 11  1  0  0  0
 11 12  1  0  0  0
 10 13  1  0  0  0
 13 14  2  0  0  0
 14 15  1  0  0  0
 15 16  2  0  0  0
 16 17  1  0  0  0
 16 18  1  0  0  0
 18 19  2  0  0  0
 24 25  1  0  0  0
 25 26  1  0  0  0
 25 27  2  0  0  0
 27 28  1  0  0  0
 27 21  1  0  0  0
  5  1  1  0  0  0
 12 10  1  0  0  0
 19 13  1  0  0  0
  8  9  1  0  0  0
 28 29  1  0  0  0
M  END
> <minimizedAffinity>
-7.16520

> <CNNscore>
0.2285885811

> <CNNaffinity>
6.4061670303

> <CNN_VS>
1.4643766880

> <CNNaffinity_variance>
0.0770445094

$$$$
[H]Oc1c(F)c(C([H])([H])[C@]2([H])C([H])([H])C([H])([H])C([H])([H])[C@@]2([H])C(=O)N([H])C2(c3c([H])c([H])c(Br)c([H])c3[H])C([H])([H])C2([H])[H])c([H])c([H])c1OC([H])([H])[H]


 31 34  0  0  0  0  0  0  0  0999 V2000
   60.9127   -6.8185   -9.0698 C   0  0  0  0  0  0  0  0  0  0  0  0
   62.2185   -6.2296   -8.7607 C   0  0  0  0  0  0  0  0  0  0  0  0
   63.1353   -6.7382   -9.8508 C   0  0  0  0  0  0  0  0  0  0  0  0
   62.4146   -7.8827  -10.5379 C   0  0  0  0  0  0  0  0  0  0  0  0
   61.2333   -8.2048   -9.6460 C   0  0  0  0  0  0  0  0  0  0  0  0
   61.5286   -9.2017   -8.6316 C   0  0  0  0  0  0  0  0  0  0  0  0
   61.1625   -8.8843   -7.4334 O   0  0  0  0  0  0  0  0  0  0  0  0
   62.1511  -10.4495   -8.7588 N   0  0  0  0  0  0  0  0  0  0  0  0
   62.4941  -10.8489   -9.6824 H   0  0  0  0  0  0  0  0  0  0  0  0
   62.3785  -11.3190   -7.6148 C   0  0  0  0  0  0  0  0  0  0  0  0
   61.2493  -12.3200   -7.4120 C   0  0  0  0  0  0  0  0  0  0  0  0
   62.5621  -12.7763   -7.9002 C   0  0  0  0  0  0  0  0  0  0  0  0
   63.1639  -10.8419   -6.4535 C   0  0  0  0  0  0  0  0  0  0  0  0
   62.7264  -10.9585   -5.1654 C   0  0  0  0  0  0  0  0  0  0  0  0
   63.4925  -10.5093   -4.0906 C   0  0  0  0  0  0  0  0  0  0  0  0
   64.7167   -9.9330   -4.3003 C   0  0  0  0  0  0  0  0  0  0  0  0
   65.7373   -9.3372   -2.8063 Br  0  0  0  0  0  0  0  0  0  0  0  0
   65.1775   -9.8055   -5.6021 C   0  0  0  0  0  0  0  0  0  0  0  0
   64.4101  -10.2524   -6.6450 C   0  0  0  0  0  0  0  0  0  0  0  0
   60.0856   -6.1224  -10.0699 C   0  0  0  0  0  0  0  0  0  0  0  0
   56.4366   -4.4612   -8.6677 C   0  0  0  0  0  0  0  0  0  0  0  0
   57.3049   -5.1289   -7.8096 C   0  0  0  0  0  0  0  0  0  0  0  0
   58.4494   -5.6575   -8.3227 C   0  0  0  0  0  0  0  0  0  0  0  0
   58.8018   -5.5638   -9.6811 C   0  0  0  0  0  0  0  0  0  0  0  0
   57.9430   -4.9119  -10.5080 C   0  0  0  0  0  0  0  0  0  0  0  0
   58.1737   -4.8329  -11.8446 F   0  0  0  0  0  0  0  0  0  0  0  0
   56.7579   -4.3610   -9.9883 C   0  0  0  0  0  0  0  0  0  0  0  0
   55.8990   -3.6958  -10.8642 O   0  0  0  0  0  0  0  0  0  0  0  0
   56.1603   -3.6357  -11.8339 H   0  0  0  0  0  0  0  0  0  0  0  0
   54.1260   -4.6669   -7.8801 C   0  0  0  0  0  0  0  0  0  0  0  0
   55.2807   -3.9145   -8.1864 O   0  0  0  0  0  0  0  0  0  0  0  0
 30 31  1  0  0  0
 31 21  1  0  0  0
 21 22  2  0  0  0
 22 23  1  0  0  0
 23 24  2  0  0  0
 24 20  1  0  0  0
 20  1  1  0  0  0
  1  2  1  0  0  0
  2  3  1  0  0  0
  3  4  1  0  0  0
  4  5  1  0  0  0
  5  6  1  0  0  0
  6  7  2  0  0  0
  6  8  1  0  0  0
  8 10  1  0  0  0
 10 11  1  0  0  0
 11 12  1  0  0  0
 10 13  1  0  0  0
 13 14  2  0  0  0
 14 15  1  0  0  0
 15 16  2  0  0  0
 16 17  1  0  0  0
 16 18  1  0  0  0
 18 19  2  0  0  0
 24 25  1  0  0  0
 25 26  1  0  0  0
 25 27  2  0  0  0
 27 28  1  0  0  0
 27 21  1  0  0  0
  5  1  1  0  0  0
 12 10  1  0  0  0
 19 13  1  0  0  0
  8  9  1  0  0  0
 28 29  1  0  0  0
M  END
> <minimizedAffinity>
-5.54532

> <CNNscore>
0.2201297432

> <CNNaffinity>
5.0847330093

> <CNN_VS>
1.1193009615

> <CNNaffinity_variance>
0.0704474598

$$$$
[H]Oc1c(F)c(C([H])([H])[C@]2([H])C([H])([H])C([H])([H])C([H])([H])[C@@]2([H])C(=O)N([H])C2(c3c([H])c([H])c(Br)c([H])c3[H])C([H])([H])C2([H])[H])c([H])c([H])c1OC([H])([H])[H]


 31 34  0  0  0  0  0  0  0  0999 V2000
   55.3179   -4.8023   -9.2626 C   0  0  0  0  0  0  0  0  0  0  0  0
   54.4895   -3.6521   -9.6347 C   0  0  0  0  0  0  0  0  0  0  0  0
   54.7961   -2.6051   -8.5873 C   0  0  0  0  0  0  0  0  0  0  0  0
   55.5119   -3.3108   -7.4512 C   0  0  0  0  0  0  0  0  0  0  0  0
   55.3403   -4.7903   -7.7277 C   0  0  0  0  0  0  0  0  0  0  0  0
   54.1467   -5.3574   -7.1245 C   0  0  0  0  0  0  0  0  0  0  0  0
   54.0885   -6.6484   -7.1422 O   0  0  0  0  0  0  0  0  0  0  0  0
   53.0530   -4.7148   -6.5315 N   0  0  0  0  0  0  0  0  0  0  0  0
   52.9674   -3.6596   -6.4341 H   0  0  0  0  0  0  0  0  0  0  0  0
   51.9257   -5.4550   -5.9858 C   0  0  0  0  0  0  0  0  0  0  0  0
   50.6067   -5.0735   -6.6437 C   0  0  0  0  0  0  0  0  0  0  0  0
   51.2156   -6.3869   -6.9165 C   0  0  0  0  0  0  0  0  0  0  0  0
   51.9452   -5.9252   -4.5817 C   0  0  0  0  0  0  0  0  0  0  0  0
   50.8794   -5.7868   -3.7395 C   0  0  0  0  0  0  0  0  0  0  0  0
   50.9230   -6.2487   -2.4247 C   0  0  0  0  0  0  0  0  0  0  0  0
   52.0474   -6.8596   -1.9378 C   0  0  0  0  0  0  0  0  0  0  0  0
   52.0671   -7.4833   -0.1380 Br  0  0  0  0  0  0  0  0  0  0  0  0
   53.1404   -7.0086   -2.7785 C   0  0  0  0  0  0  0  0  0  0  0  0
   53.0786   -6.5478   -4.0668 C   0  0  0  0  0  0  0  0  0  0  0  0
   56.7211   -4.7876   -9.7093 C   0  0  0  0  0  0  0  0  0  0  0  0
   57.3968   -3.6870  -13.7557 C   0  0  0  0  0  0  0  0  0  0  0  0
   56.1128   -3.7253  -13.2206 C   0  0  0  0  0  0  0  0  0  0  0  0
   55.9589   -4.1058  -11.9229 C   0  0  0  0  0  0  0  0  0  0  0  0
   57.0347   -4.4640  -11.0906 C   0  0  0  0  0  0  0  0  0  0  0  0
   58.2824   -4.4253  -11.6273 C   0  0  0  0  0  0  0  0  0  0  0  0
   59.3698   -4.8186  -10.9140 F   0  0  0  0  0  0  0  0  0  0  0  0
   58.4531   -4.0326  -12.9671 C   0  0  0  0  0  0  0  0  0  0  0  0
   59.7479   -4.0012  -13.4863 O   0  0  0  0  0  0  0  0  0  0  0  0
   60.5099   -4.2606  -12.8827 H   0  0  0  0  0  0  0  0  0  0  0  0
   56.7300   -3.6706  -16.1128 C   0  0  0  0  0  0  0  0  0  0  0  0
   57.5889   -3.3058  -15.0534 O   0  0  0  0  0  0  0  0  0  0  0  0
 30 31  1  0  0  0
 31 21  1  0  0  0
 21 22  2  0  0  0
 22 23  1  0  0  0
 23 24  2  0  0  0
 24 20  1  0  0  0
 20  1  1  0  0  0
  1  2  1  0  0  0
  2  3  1  0  0  0
  3  4  1  0  0  0
  4  5  1  0  0  0
  5  6  1  0  0  0
  6  7  2  0  0  0
  6  8  1  0  0  0
  8 10  1  0  0  0
 10 11  1  0  0  0
 11 12  1  0  0  0
 10 13  1  0  0  0
 13 14  2  0  0  0
 14 15  1  0  0  0
 15 16  2  0  0  0
 16 17  1  0  0  0
 16 18  1  0  0  0
 18 19  2  0  0  0
 24 25  1  0  0  0
 25 26  1  0  0  0
 25 27  2  0  0  0
 27 28  1  0  0  0
 27 21  1  0  0  0
  5  1  1  0  0  0
 12 10  1  0  0  0
 19 13  1  0  0  0
  8  9  1  0  0  0
 28 29  1  0  0  0
M  END
> <minimizedAffinity>
-8.88485

> <CNNscore>
0.2150469273

> <CNNaffinity>
6.2687654495

> <CNN_VS>
1.3480787277

> <CNNaffinity_variance>
0.0856948122

$$$$
[H]Oc1c(F)c(C([H])([H])[C@]2([H])C([H])([H])C([H])([H])C([H])([H])[C@@]2([H])C(=O)N([H])C2(c3c([H])c([H])c(Br)c([H])c3[H])C([H])([H])C2([H])[H])c([H])c([H])c1OC([H])([H])[H]


 31 34  0  0  0  0  0  0  0  0999 V2000
   55.6860   -4.7813   -5.9130 C   0  0  0  0  0  0  0  0  0  0  0  0
   55.6351   -4.7431   -4.4489 C   0  0  0  0  0  0  0  0  0  0  0  0
   56.0090   -6.1433   -4.0164 C   0  0  0  0  0  0  0  0  0  0  0  0
   55.9107   -7.0278   -5.2449 C   0  0  0  0  0  0  0  0  0  0  0  0
   55.1996   -6.1886   -6.2864 C   0  0  0  0  0  0  0  0  0  0  0  0
   53.7543   -6.3311   -6.2564 C   0  0  0  0  0  0  0  0  0  0  0  0
   53.2844   -6.8911   -5.1906 O   0  0  0  0  0  0  0  0  0  0  0  0
   52.7989   -5.9552   -7.2085 N   0  0  0  0  0  0  0  0  0  0  0  0
   53.0351   -5.4744   -8.1268 H   0  0  0  0  0  0  0  0  0  0  0  0
   51.3772   -6.1931   -7.0112 C   0  0  0  0  0  0  0  0  0  0  0  0
   50.7934   -7.1288   -8.0608 C   0  0  0  0  0  0  0  0  0  0  0  0
   50.9672   -7.5919   -6.6731 C   0  0  0  0  0  0  0  0  0  0  0  0
   50.5234   -5.1598   -6.3818 C   0  0  0  0  0  0  0  0  0  0  0  0
   50.1075   -4.0396   -7.0426 C   0  0  0  0  0  0  0  0  0  0  0  0
   49.2950   -3.0882   -6.4272 C   0  0  0  0  0  0  0  0  0  0  0  0
   48.8882   -3.2534   -5.1304 C   0  0  0  0  0  0  0  0  0  0  0  0
   47.7731   -1.9353   -4.3256 Br  0  0  0  0  0  0  0  0  0  0  0  0
   49.3012   -4.3849   -4.4428 C   0  0  0  0  0  0  0  0  0  0  0  0
   50.0998   -5.3080   -5.0643 C   0  0  0  0  0  0  0  0  0  0  0  0
   57.0068   -4.6066   -6.5404 C   0  0  0  0  0  0  0  0  0  0  0  0
   57.4860   -4.7596  -10.7580 C   0  0  0  0  0  0  0  0  0  0  0  0
   58.4051   -5.3597   -9.9028 C   0  0  0  0  0  0  0  0  0  0  0  0
   58.2078   -5.2586   -8.5599 C   0  0  0  0  0  0  0  0  0  0  0  0
   57.1186   -4.5760   -7.9888 C   0  0  0  0  0  0  0  0  0  0  0  0
   56.2310   -3.9921   -8.8357 C   0  0  0  0  0  0  0  0  0  0  0  0
   55.1880   -3.2577   -8.3681 F   0  0  0  0  0  0  0  0  0  0  0  0
   56.4246   -4.0912  -10.2253 C   0  0  0  0  0  0  0  0  0  0  0  0
   55.4930   -3.4823  -11.0671 O   0  0  0  0  0  0  0  0  0  0  0  0
   54.7185   -2.9957  -10.6480 H   0  0  0  0  0  0  0  0  0  0  0  0
   58.5196   -4.0122  -12.8494 C   0  0  0  0  0  0  0  0  0  0  0  0
   57.6503   -4.8446  -12.1116 O   0  0  0  0  0  0  0  0  0  0  0  0
 30 31  1  0  0  0
 31 21  1  0  0  0
 21 22  2  0  0  0
 22 23  1  0  0  0
 23 24  2  0  0  0
 24 20  1  0  0  0
 20  1  1  0  0  0
  1  2  1  0  0  0
  2  3  1  0  0  0
  3  4  1  0  0  0
  4  5  1  0  0  0
  5  6  1  0  0  0
  6  7  2  0  0  0
  6  8  1  0  0  0
  8 10  1  0  0  0
 10 11  1  0  0  0
 11 12  1  0  0  0
 10 13  1  0  0  0
 13 14  2  0  0  0
 14 15  1  0  0  0
 15 16  2  0  0  0
 16 17  1  0  0  0
 16 18  1  0  0  0
 18 19  2  0  0  0
 24 25  1  0  0  0
 25 26  1  0  0  0
 25 27  2  0  0  0
 27 28  1  0  0  0
 27 21  1  0  0  0
  5  1  1  0  0  0
 12 10  1  0  0  0
 19 13  1  0  0  0
  8  9  1  0  0  0
 28 29  1  0  0  0
M  END
> <minimizedAffinity>
-6.39072

> <CNNscore>
0.2086695284

> <CNNaffinity>
6.5946779251

> <CNN_VS>
1.3761082888

> <CNNaffinity_variance>
0.2563015819

$$$$
[H]O[C@]1([H])[C@]([H])(O[H])[C@@]([H])(O[H])[C@]([H])(O[H])[C@]([H])(O[H])[C@]([H])(O[H])[C@@]1([H])C([H])([H])[H]


 20 20  0  0  0  0  0  0  0  0999 V2000
   53.9193   -6.5942   -6.9604 C   0  0  0  0  0  0  0  0  0  0  0  0
   53.1026   -5.3509   -7.2000 C   0  0  0  0  0  0  0  0  0  0  0  0
   53.9664   -4.1286   -7.3746 C   0  0  0  0  0  0  0  0  0  0  0  0
   55.3045   -4.4050   -7.5000 O   0  0  0  0  0  0  0  0  0  0  0  0
   53.4145   -3.3852   -8.5989 C   0  0  0  0  0  0  0  0  0  0  0  0
   53.2431   -4.3401   -9.5854 O   0  0  0  0  0  0  0  0  0  0  0  0
   52.1578   -2.6765   -8.2172 C   0  0  0  0  0  0  0  0  0  0  0  0
   51.6948   -1.9914   -9.3475 O   0  0  0  0  0  0  0  0  0  0  0  0
   51.0551   -3.5758   -7.7554 C   0  0  0  0  0  0  0  0  0  0  0  0
   49.8755   -2.7892   -7.8323 O   0  0  0  0  0  0  0  0  0  0  0  0
   51.1902   -3.9970   -6.3306 C   0  0  0  0  0  0  0  0  0  0  0  0
   49.9095   -4.4164   -5.9023 O   0  0  0  0  0  0  0  0  0  0  0  0
   52.1590   -5.0796   -6.0632 C   0  0  0  0  0  0  0  0  0  0  0  0
   51.5432   -6.2694   -5.6362 O   0  0  0  0  0  0  0  0  0  0  0  0
   55.8987   -3.7647   -7.0345 H   0  0  0  0  0  0  0  0  0  0  0  0
   52.9874   -3.9917  -10.4551 H   0  0  0  0  0  0  0  0  0  0  0  0
   50.8257   -1.5653   -9.1926 H   0  0  0  0  0  0  0  0  0  0  0  0
   49.0675   -3.3509   -7.7477 H   0  0  0  0  0  0  0  0  0  0  0  0
   49.9995   -4.6362   -4.9326 H   0  0  0  0  0  0  0  0  0  0  0  0
   50.8876   -6.5397   -6.3135 H   0  0  0  0  0  0  0  0  0  0  0  0
  1  2  1  0  0  0
  2  3  1  0  0  0
  3  4  1  0  0  0
  3  5  1  0  0  0
  5  6  1  0  0  0
  5  7  1  0  0  0
  7  8  1  0  0  0
  7  9  1  0  0  0
  9 10  1  0  0  0
  9 11  1  0  0  0
 11 12  1  0  0  0
 11 13  1  0  0  0
 13 14  1  0  0  0
 13  2  1  0  0  0
  4 15  1  0  0  0
  6 16  1  0  0  0
  8 17  1  0  0  0
 10 18  1  0  0  0
 12 19  1  0  0  0
 14 20  1  0  0  0
M  END
> <minimizedAffinity>
-6.06551

> <CNNscore>
0.3675321341

> <CNNaffinity>
3.3599534035

> <CNN_VS>
1.2348908186

> <CNNaffinity_variance>
0.1680689156

$$$$
[H]O[C@]1([H])[C@]([H])(O[H])[C@@]([H])(O[H])[C@]([H])(O[H])[C@]([H])(O[H])[C@]([H])(O[H])[C@@]1([H])C([H])([H])[H]


 20 20  0  0  0  0  0  0  0  0999 V2000
   52.1534   -6.2322   -6.8648 C   0  0  0  0  0  0  0  0  0  0  0  0
   51.2427   -5.3429   -6.0586 C   0  0  0  0  0  0  0  0  0  0  0  0
   51.4295   -3.8855   -6.3932 C   0  0  0  0  0  0  0  0  0  0  0  0
   52.2144   -3.6632   -7.4965 O   0  0  0  0  0  0  0  0  0  0  0  0
   50.0205   -3.3003   -6.5610 C   0  0  0  0  0  0  0  0  0  0  0  0
   49.3304   -4.1827   -7.3732 O   0  0  0  0  0  0  0  0  0  0  0  0
   49.4054   -3.1086   -5.2149 C   0  0  0  0  0  0  0  0  0  0  0  0
   48.1335   -2.5530   -5.4029 O   0  0  0  0  0  0  0  0  0  0  0  0
   49.2319   -4.3688   -4.4277 C   0  0  0  0  0  0  0  0  0  0  0  0
   48.3008   -4.0450   -3.4058 O   0  0  0  0  0  0  0  0  0  0  0  0
   50.4780   -4.8143   -3.7387 C   0  0  0  0  0  0  0  0  0  0  0  0
   50.0834   -5.6871   -2.6984 O   0  0  0  0  0  0  0  0  0  0  0  0
   51.4759   -5.5020   -4.5833 C   0  0  0  0  0  0  0  0  0  0  0  0
   51.6299   -6.8593   -4.2499 O   0  0  0  0  0  0  0  0  0  0  0  0
   52.8254   -2.8890   -7.4132 H   0  0  0  0  0  0  0  0  0  0  0  0
   48.4460   -3.8865   -7.6441 H   0  0  0  0  0  0  0  0  0  0  0  0
   47.6362   -2.4725   -4.5620 H   0  0  0  0  0  0  0  0  0  0  0  0
   47.9629   -4.8598   -2.9615 H   0  0  0  0  0  0  0  0  0  0  0  0
   50.9183   -5.9286   -2.2072 H   0  0  0  0  0  0  0  0  0  0  0  0
   50.7535   -7.2950   -4.3107 H   0  0  0  0  0  0  0  0  0  0  0  0
  1  2  1  0  0  0
  2  3  1  0  0  0
  3  4  1  0  0  0
  3  5  1  0  0  0
  5  6  1  0  0  0
  5  7  1  0  0  0
  7  8  1  0  0  0
  7  9  1  0  0  0
  9 10  1  0  0  0
  9 11  1  0  0  0
 11 12  1  0  0  0
 11 13  1  0  0  0
 13 14  1  0  0  0
 13  2  1  0  0  0
  4 15  1  0  0  0
  6 16  1  0  0  0
  8 17  1  0  0  0
 10 18  1  0  0  0
 12 19  1  0  0  0
 14 20  1  0  0  0
M  END
> <minimizedAffinity>
-5.23198

> <CNNscore>
0.3605575562

> <CNNaffinity>
3.6809577942

> <CNN_VS>
1.3271971941

> <CNNaffinity_variance>
0.2174538821

$$$$
[H]O[C@]1([H])[C@]([H])(O[H])[C@@]([H])(O[H])[C@]([H])(O[H])[C@]([H])(O[H])[C@]([H])(O[H])[C@@]1([H])C([H])([H])[H]


 20 20  0  0  0  0  0  0  0  0999 V2000
   55.1056   -4.3433   -9.3309 C   0  0  0  0  0  0  0  0  0  0  0  0
   53.8342   -4.0863   -8.5643 C   0  0  0  0  0  0  0  0  0  0  0  0
   53.6303   -2.6212   -8.2766 C   0  0  0  0  0  0  0  0  0  0  0  0
   54.5033   -1.7963   -8.9400 O   0  0  0  0  0  0  0  0  0  0  0  0
   52.1680   -2.3149   -8.6284 C   0  0  0  0  0  0  0  0  0  0  0  0
   51.9425   -2.8827   -9.8698 O   0  0  0  0  0  0  0  0  0  0  0  0
   51.2826   -2.8449   -7.5502 C   0  0  0  0  0  0  0  0  0  0  0  0
   49.9612   -2.5287   -7.8901 O   0  0  0  0  0  0  0  0  0  0  0  0
   51.3544   -4.3273   -7.3623 C   0  0  0  0  0  0  0  0  0  0  0  0
   50.1947   -4.6652   -6.6161 O   0  0  0  0  0  0  0  0  0  0  0  0
   52.5244   -4.7661   -6.5472 C   0  0  0  0  0  0  0  0  0  0  0  0
   52.2248   -6.0595   -6.0603 O   0  0  0  0  0  0  0  0  0  0  0  0
   53.8235   -4.8116   -7.2489 C   0  0  0  0  0  0  0  0  0  0  0  0
   54.3158   -6.1198   -7.4009 O   0  0  0  0  0  0  0  0  0  0  0  0
   54.8243   -1.0275   -8.4054 H   0  0  0  0  0  0  0  0  0  0  0  0
   51.0773   -2.6823  -10.2627 H   0  0  0  0  0  0  0  0  0  0  0  0
   49.3145   -2.9169   -7.2641 H   0  0  0  0  0  0  0  0  0  0  0  0
   50.0422   -5.6411   -6.6184 H   0  0  0  0  0  0  0  0  0  0  0  0
   52.9859   -6.3159   -5.4674 H   0  0  0  0  0  0  0  0  0  0  0  0
   53.6402   -6.6528   -7.8710 H   0  0  0  0  0  0  0  0  0  0  0  0
  1  2  1  0  0  0
  2  3  1  0  0  0
  3  4  1  0  0  0
  3  5  1  0  0  0
  5  6  1  0  0  0
  5  7  1  0  0  0
  7  8  1  0  0  0
  7  9  1  0  0  0
  9 10  1  0  0  0
  9 11  1  0  0  0
 11 12  1  0  0  0
 11 13  1  0  0  0
 13 14  1  0  0  0
 13  2  1  0  0  0
  4 15  1  0  0  0
  6 16  1  0  0  0
  8 17  1  0  0  0
 10 18  1  0  0  0
 12 19  1  0  0  0
 14 20  1  0  0  0
M  END
> <minimizedAffinity>
-6.53535

> <CNNscore>
0.3498247266

> <CNNaffinity>
3.3893032074

> <CNN_VS>
1.1856620312

> <CNNaffinity_variance>
0.1823469698

$$$$
[H]O[C@]1([H])[C@]([H])(O[H])[C@@]([H])(O[H])[C@]([H])(O[H])[C@]([H])(O[H])[C@]([H])(O[H])[C@@]1([H])C([H])([H])[H]


 20 20  0  0  0  0  0  0  0  0999 V2000
   55.2839   -4.1225  -11.6811 C   0  0  0  0  0  0  0  0  0  0  0  0
   56.2647   -4.4256  -10.5782 C   0  0  0  0  0  0  0  0  0  0  0  0
   56.0934   -3.5060   -9.3968 C   0  0  0  0  0  0  0  0  0  0  0  0
   54.9629   -2.7304   -9.4536 O   0  0  0  0  0  0  0  0  0  0  0  0
   56.1159   -4.4012   -8.1501 C   0  0  0  0  0  0  0  0  0  0  0  0
   55.2642   -5.4581   -8.4185 O   0  0  0  0  0  0  0  0  0  0  0  0
   57.5220   -4.8133   -7.8673 C   0  0  0  0  0  0  0  0  0  0  0  0
   57.5096   -5.6073   -6.7137 O   0  0  0  0  0  0  0  0  0  0  0  0
   58.1637   -5.6144   -8.9556 C   0  0  0  0  0  0  0  0  0  0  0  0
   59.2916   -6.2292   -8.3507 O   0  0  0  0  0  0  0  0  0  0  0  0
   58.6872   -4.7804  -10.0765 C   0  0  0  0  0  0  0  0  0  0  0  0
   59.6444   -5.5648  -10.7607 O   0  0  0  0  0  0  0  0  0  0  0  0
   57.6854   -4.2977  -11.0489 C   0  0  0  0  0  0  0  0  0  0  0  0
   57.8391   -4.8745  -12.3219 O   0  0  0  0  0  0  0  0  0  0  0  0
   55.0872   -1.8037   -9.1288 H   0  0  0  0  0  0  0  0  0  0  0  0
   55.1060   -6.0587   -7.6718 H   0  0  0  0  0  0  0  0  0  0  0  0
   58.3927   -5.9816   -6.5117 H   0  0  0  0  0  0  0  0  0  0  0  0
   59.6614   -6.9401   -8.9282 H   0  0  0  0  0  0  0  0  0  0  0  0
   60.0313   -4.9759  -11.4680 H   0  0  0  0  0  0  0  0  0  0  0  0
   57.8000   -5.8498  -12.2273 H   0  0  0  0  0  0  0  0  0  0  0  0
  1  2  1  0  0  0
  2  3  1  0  0  0
  3  4  1  0  0  0
  3  5  1  0  0  0
  5  6  1  0  0  0
  5  7  1  0  0  0
  7  8  1  0  0  0
  7  9  1  0  0  0
  9 10  1  0  0  0
  9 11  1  0  0  0
 11 12  1  0  0  0
 11 13  1  0  0  0
 13 14  1  0  0  0
 13  2  1  0  0  0
  4 15  1  0  0  0
  6 16  1  0  0  0
  8 17  1  0  0  0
 10 18  1  0  0  0
 12 19  1  0  0  0
 14 20  1  0  0  0
M  END
> <minimizedAffinity>
-4.73246

> <CNNscore>
0.3482295573

> <CNNaffinity>
3.0254311562

> <CNN_VS>
1.0535445213

> <CNNaffinity_variance>
0.0761080012

$$$$
[H]O[C@]1([H])[C@]([H])(O[H])[C@@]([H])(O[H])[C@]([H])(O[H])[C@]([H])(O[H])[C@]([H])(O[H])[C@@]1([H])C([H])([H])[H]


 20 20  0  0  0  0  0  0  0  0999 V2000
   50.0842   -5.4054   -6.3240 C   0  0  0  0  0  0  0  0  0  0  0  0
   51.2954   -4.8061   -6.9904 C   0  0  0  0  0  0  0  0  0  0  0  0
   52.5340   -4.9374   -6.1422 C   0  0  0  0  0  0  0  0  0  0  0  0
   52.3771   -5.7518   -5.0491 O   0  0  0  0  0  0  0  0  0  0  0  0
   53.6434   -5.4367   -7.0781 C   0  0  0  0  0  0  0  0  0  0  0  0
   53.0997   -6.4881   -7.7946 O   0  0  0  0  0  0  0  0  0  0  0  0
   54.1147   -4.3042   -7.9281 C   0  0  0  0  0  0  0  0  0  0  0  0
   55.1398   -4.7871   -8.7512 O   0  0  0  0  0  0  0  0  0  0  0  0
   53.0644   -3.7182   -8.8177 C   0  0  0  0  0  0  0  0  0  0  0  0
   53.7762   -2.9714   -9.7933 O   0  0  0  0  0  0  0  0  0  0  0  0
   52.1660   -2.7534   -8.1192 C   0  0  0  0  0  0  0  0  0  0  0  0
   51.5677   -1.9511   -9.1182 O   0  0  0  0  0  0  0  0  0  0  0  0
   51.1010   -3.3460   -7.2846 C   0  0  0  0  0  0  0  0  0  0  0  0
   49.8127   -3.1113   -7.7966 O   0  0  0  0  0  0  0  0  0  0  0  0
   52.8319   -5.4291   -4.2313 H   0  0  0  0  0  0  0  0  0  0  0  0
   53.7261   -6.9663   -8.3623 H   0  0  0  0  0  0  0  0  0  0  0  0
   55.4452   -4.1149   -9.3960 H   0  0  0  0  0  0  0  0  0  0  0  0
   53.1883   -2.7174  -10.5452 H   0  0  0  0  0  0  0  0  0  0  0  0
   51.0186   -1.2710   -8.6359 H   0  0  0  0  0  0  0  0  0  0  0  0
   49.7763   -3.4549   -8.7143 H   0  0  0  0  0  0  0  0  0  0  0  0
  1  2  1  0  0  0
  2  3  1  0  0  0
  3  4  1  0  0  0
  3  5  1  0  0  0
  5  6  1  0  0  0
  5  7  1  0  0  0
  7  8  1  0  0  0
  7  9  1  0  0  0
  9 10  1  0  0  0
  9 11  1  0  0  0
 11 12  1  0  0  0
 11 13  1  0  0  0
 13 14  1  0  0  0
 13  2  1  0  0  0
  4 15  1  0  0  0
  6 16  1  0  0  0
  8 17  1  0  0  0
 10 18  1  0  0  0
 12 19  1  0  0  0
 14 20  1  0  0  0
M  END
> <minimizedAffinity>
-7.01624

> <CNNscore>
0.3435187340

> <CNNaffinity>
3.3724613190

> <CNN_VS>
1.1585036516

> <CNNaffinity_variance>
0.1788842380

$$$$
[H]O[C@]1([H])[C@]([H])(O[H])[C@@]([H])(O[H])[C@]([H])(O[H])[C@]([H])(O[H])[C@]([H])(O[H])[C@@]1([H])C([H])([H])[H]


 20 20  0  0  0  0  0  0  0  0999 V2000
   55.1415   -2.8521   -8.5617 C   0  0  0  0  0  0  0  0  0  0  0  0
   56.1686   -3.6806   -9.2888 C   0  0  0  0  0  0  0  0  0  0  0  0
   55.6505   -4.2019  -10.6043 C   0  0  0  0  0  0  0  0  0  0  0  0
   54.4507   -3.6565  -10.9863 O   0  0  0  0  0  0  0  0  0  0  0  0
   56.7570   -3.9391  -11.6351 C   0  0  0  0  0  0  0  0  0  0  0  0
   57.1596   -2.6292  -11.4437 O   0  0  0  0  0  0  0  0  0  0  0  0
   57.8476   -4.9409  -11.4504 C   0  0  0  0  0  0  0  0  0  0  0  0
   58.8271   -4.6880  -12.4190 O   0  0  0  0  0  0  0  0  0  0  0  0
   58.5161   -4.8896  -10.1131 C   0  0  0  0  0  0  0  0  0  0  0  0
   59.7339   -5.6011  -10.2775 O   0  0  0  0  0  0  0  0  0  0  0  0
   57.7551   -5.5959   -9.0417 C   0  0  0  0  0  0  0  0  0  0  0  0
   58.6725   -5.8788   -8.0036 O   0  0  0  0  0  0  0  0  0  0  0  0
   56.6046   -4.8643   -8.4732 C   0  0  0  0  0  0  0  0  0  0  0  0
   56.8026   -4.4948   -7.1311 O   0  0  0  0  0  0  0  0  0  0  0  0
   53.8273   -4.2981  -11.4098 H   0  0  0  0  0  0  0  0  0  0  0  0
   57.7946   -2.2943  -12.0979 H   0  0  0  0  0  0  0  0  0  0  0  0
   59.6151   -5.2601  -12.3074 H   0  0  0  0  0  0  0  0  0  0  0  0
   60.3410   -5.4478   -9.5136 H   0  0  0  0  0  0  0  0  0  0  0  0
   58.1668   -6.4047   -7.3221 H   0  0  0  0  0  0  0  0  0  0  0  0
   57.6244   -3.9628   -7.0738 H   0  0  0  0  0  0  0  0  0  0  0  0
  1  2  1  0  0  0
  2  3  1  0  0  0
  3  4  1  0  0  0
  3  5  1  0  0  0
  5  6  1  0  0  0
  5  7  1  0  0  0
  7  8  1  0  0  0
  7  9  1  0  0  0
  9 10  1  0  0  0
  9 11  1  0  0  0
 11 12  1  0  0  0
 11 13  1  0  0  0
 13 14  1  0  0  0
 13  2  1  0  0  0
  4 15  1  0  0  0
  6 16  1  0  0  0
  8 17  1  0  0  0
 10 18  1  0  0  0
 12 19  1  0  0  0
 14 20  1  0  0  0
M  END
> <minimizedAffinity>
-5.86290

> <CNNscore>
0.3317556083

> <CNNaffinity>
3.1336951256

> <CNN_VS>
1.0396208763

> <CNNaffinity_variance>
0.0879791453

$$$$
[H]O[C@]1([H])[C@]([H])(O[H])[C@@]([H])(O[H])[C@]([H])(O[H])[C@]([H])(O[H])[C@]([H])(O[H])[C@@]1([H])C([H])([H])[H]


 20 20  0  0  0  0  0  0  0  0999 V2000
   53.8010   -5.6883   -6.5568 C   0  0  0  0  0  0  0  0  0  0  0  0
   52.6632   -4.7818   -6.9489 C   0  0  0  0  0  0  0  0  0  0  0  0
   51.3740   -5.5382   -7.1406 C   0  0  0  0  0  0  0  0  0  0  0  0
   51.4253   -6.8428   -6.7184 O   0  0  0  0  0  0  0  0  0  0  0  0
   50.2928   -4.7361   -6.4033 C   0  0  0  0  0  0  0  0  0  0  0  0
   50.8173   -4.4342   -5.1591 O   0  0  0  0  0  0  0  0  0  0  0  0
   49.9319   -3.5373   -7.2155 C   0  0  0  0  0  0  0  0  0  0  0  0
   48.9293   -2.8424   -6.5273 O   0  0  0  0  0  0  0  0  0  0  0  0
   51.0604   -2.5828   -7.4468 C   0  0  0  0  0  0  0  0  0  0  0  0
   50.4457   -1.3720   -7.8617 O   0  0  0  0  0  0  0  0  0  0  0  0
   51.9699   -2.9966   -8.5547 C   0  0  0  0  0  0  0  0  0  0  0  0
   52.6656   -1.8379   -8.9704 O   0  0  0  0  0  0  0  0  0  0  0  0
   52.9529   -4.0498   -8.2281 C   0  0  0  0  0  0  0  0  0  0  0  0
   54.2785   -3.5813   -8.2412 O   0  0  0  0  0  0  0  0  0  0  0  0
   50.9440   -7.4800   -7.3032 H   0  0  0  0  0  0  0  0  0  0  0  0
   50.1984   -4.0071   -4.5444 H   0  0  0  0  0  0  0  0  0  0  0  0
   48.6973   -1.9965   -6.9648 H   0  0  0  0  0  0  0  0  0  0  0  0
   51.0875   -0.6215   -7.8390 H   0  0  0  0  0  0  0  0  0  0  0  0
   53.2233   -2.1142   -9.7510 H   0  0  0  0  0  0  0  0  0  0  0  0
   54.3471   -2.8270   -7.6184 H   0  0  0  0  0  0  0  0  0  0  0  0
  1  2  1  0  0  0
  2  3  1  0  0  0
  3  4  1  0  0  0
  3  5  1  0  0  0
  5  6  1  0  0  0
  5  7  1  0  0  0
  7  8  1  0  0  0
  7  9  1  0  0  0
  9 10  1  0  0  0
  9 11  1  0  0  0
 11 12  1  0  0  0
 11 13  1  0  0  0
 13 14  1  0  0  0
 13  2  1  0  0  0
  4 15  1  0  0  0
  6 16  1  0  0  0
  8 17  1  0  0  0
 10 18  1  0  0  0
 12 19  1  0  0  0
 14 20  1  0  0  0
M  END
> <minimizedAffinity>
-6.66694

> <CNNscore>
0.3246853054

> <CNNaffinity>
3.3436179161

> <CNN_VS>
1.0856236219

> <CNNaffinity_variance>
0.1763664484

$$$$
[H]O[C@]1([H])[C@]([H])(O[H])[C@@]([H])(O[H])[C@]([H])(O[H])[C@]([H])(O[H])[C@]([H])(O[H])[C@@]1([H])C([H])([H])[H]


 20 20  0  0  0  0  0  0  0  0999 V2000
   50.0899   -3.6066   -5.6246 C   0  0  0  0  0  0  0  0  0  0  0  0
   51.1721   -3.7969   -6.6555 C   0  0  0  0  0  0  0  0  0  0  0  0
   50.6389   -3.7077   -8.0621 C   0  0  0  0  0  0  0  0  0  0  0  0
   49.3434   -3.2621   -8.1399 O   0  0  0  0  0  0  0  0  0  0  0  0
   51.6079   -2.7988   -8.8309 C   0  0  0  0  0  0  0  0  0  0  0  0
   51.8182   -1.6919   -8.0277 O   0  0  0  0  0  0  0  0  0  0  0  0
   52.8504   -3.5624   -9.1471 C   0  0  0  0  0  0  0  0  0  0  0  0
   53.7007   -2.7136   -9.8669 O   0  0  0  0  0  0  0  0  0  0  0  0
   53.6057   -4.0411   -7.9477 C   0  0  0  0  0  0  0  0  0  0  0  0
   54.9016   -4.3661   -8.4284 O   0  0  0  0  0  0  0  0  0  0  0  0
   53.0483   -5.2920   -7.3558 C   0  0  0  0  0  0  0  0  0  0  0  0
   54.0766   -5.8731   -6.5784 O   0  0  0  0  0  0  0  0  0  0  0  0
   51.8471   -5.1309   -6.5112 C   0  0  0  0  0  0  0  0  0  0  0  0
   52.0904   -5.4188   -5.1566 O   0  0  0  0  0  0  0  0  0  0  0  0
   48.7948   -3.7203   -8.8245 H   0  0  0  0  0  0  0  0  0  0  0  0
   52.3411   -0.9819   -8.4347 H   0  0  0  0  0  0  0  0  0  0  0  0
   54.5736   -3.1242  -10.0412 H   0  0  0  0  0  0  0  0  0  0  0  0
   55.5359   -4.4938   -7.6820 H   0  0  0  0  0  0  0  0  0  0  0  0
   53.7126   -6.7386   -6.2391 H   0  0  0  0  0  0  0  0  0  0  0  0
   52.8226   -4.8461   -4.8445 H   0  0  0  0  0  0  0  0  0  0  0  0
  1  2  1  0  0  0
  2  3  1  0  0  0
  3  4  1  0  0  0
  3  5  1  0  0  0
  5  6  1  0  0  0
  5  7  1  0  0  0
  7  8  1  0  0  0
  7  9  1  0  0  0
  9 10  1  0  0  0
  9 11  1  0  0  0
 11 12  1  0  0  0
 11 13  1  0  0  0
 13 14  1  0  0  0
 13  2  1  0  0  0
  4 15  1  0  0  0
  6 16  1  0  0  0
  8 17  1  0  0  0
 10 18  1  0  0  0
 12 19  1  0  0  0
 14 20  1  0  0  0
M  END
> <minimizedAffinity>
-5.50196

> <CNNscore>
0.2830176055

> <CNNaffinity>
3.2698311806

> <CNN_VS>
0.9254198074

> <CNNaffinity_variance>
0.2139882296

$$$$
[H]O[C@]1([H])[C@]([H])(O[H])[C@@]([H])(O[H])[C@]([H])(O[H])[C@]([H])(O[H])[C@]([H])(O[H])[C@@]1([H])C([H])([H])[H]


 20 20  0  0  0  0  0  0  0  0999 V2000
   52.7382   -4.0037   -9.2083 C   0  0  0  0  0  0  0  0  0  0  0  0
   52.3091   -4.3848   -7.8151 C   0  0  0  0  0  0  0  0  0  0  0  0
   51.5500   -3.2772   -7.1313 C   0  0  0  0  0  0  0  0  0  0  0  0
   51.2089   -2.2398   -7.9621 O   0  0  0  0  0  0  0  0  0  0  0  0
   50.3178   -3.9330   -6.4927 C   0  0  0  0  0  0  0  0  0  0  0  0
   49.7632   -4.7434   -7.4674 O   0  0  0  0  0  0  0  0  0  0  0  0
   50.7348   -4.6656   -5.2612 C   0  0  0  0  0  0  0  0  0  0  0  0
   49.5866   -5.2307   -4.6922 O   0  0  0  0  0  0  0  0  0  0  0  0
   51.7089   -5.7755   -5.5004 C   0  0  0  0  0  0  0  0  0  0  0  0
   51.6622   -6.5721   -4.3260 O   0  0  0  0  0  0  0  0  0  0  0  0
   53.1190   -5.3079   -5.6384 C   0  0  0  0  0  0  0  0  0  0  0  0
   53.9492   -6.4243   -5.3853 O   0  0  0  0  0  0  0  0  0  0  0  0
   53.4857   -4.7299   -6.9474 C   0  0  0  0  0  0  0  0  0  0  0  0
   54.4070   -5.5223   -7.6547 O   0  0  0  0  0  0  0  0  0  0  0  0
   51.2882   -1.3437   -7.5495 H   0  0  0  0  0  0  0  0  0  0  0  0
   48.9137   -5.1499   -7.2298 H   0  0  0  0  0  0  0  0  0  0  0  0
   49.7957   -5.7963   -3.9195 H   0  0  0  0  0  0  0  0  0  0  0  0
   52.1121   -7.4401   -4.4671 H   0  0  0  0  0  0  0  0  0  0  0  0
   54.8877   -6.0854   -5.4192 H   0  0  0  0  0  0  0  0  0  0  0  0
   54.0284   -6.4210   -7.7576 H   0  0  0  0  0  0  0  0  0  0  0  0
  1  2  1  0  0  0
  2  3  1  0  0  0
  3  4  1  0  0  0
  3  5  1  0  0  0
  5  6  1  0  0  0
  5  7  1  0  0  0
  7  8  1  0  0  0
  7  9  1  0  0  0
  9 10  1  0  0  0
  9 11  1  0  0  0
 11 12  1  0  0  0
 11 13  1  0  0  0
 13 14  1  0  0  0
 13  2  1  0  0  0
  4 15  1  0  0  0
  6 16  1  0  0  0
  8 17  1  0  0  0
 10 18  1  0  0  0
 12 19  1  0  0  0
 14 20  1  0  0  0
M  END
> <minimizedAffinity>
-5.19625

> <CNNscore>
0.2829888165

> <CNNaffinity>
3.2685070038

> <CNN_VS>
0.9249509573

> <CNNaffinity_variance>
0.1021217480

$$$$
[H]C1=C(c2c([H])c([H])c(OC([H])([H])C([H])([H])[H])c([H])c2[H])C([H])([H])C([H])([H])C([H])([H])C1([H])[H]


 15 16  0  0  0  0  0  0  0  0999 V2000
   63.2364   -7.5772  -10.3583 C   0  0  0  0  0  0  0  0  0  0  0  0
   64.5676   -7.3117  -10.3751 C   0  0  0  0  0  0  0  0  0  0  0  0
   65.1467   -6.4866   -9.4032 C   0  0  0  0  0  0  0  0  0  0  0  0
   64.4079   -5.9078   -8.3919 C   0  0  0  0  0  0  0  0  0  0  0  0
   63.0558   -6.2047   -8.4126 C   0  0  0  0  0  0  0  0  0  0  0  0
   62.4769   -7.0162   -9.3655 C   0  0  0  0  0  0  0  0  0  0  0  0
   65.0054   -5.0467   -7.3765 C   0  0  0  0  0  0  0  0  0  0  0  0
   65.1180   -3.7346   -7.4973 C   0  0  0  0  0  0  0  0  0  0  0  0
   65.7551   -2.9850   -6.3680 C   0  0  0  0  0  0  0  0  0  0  0  0
   64.9321   -3.3477   -5.1503 C   0  0  0  0  0  0  0  0  0  0  0  0
   65.0712   -4.8083   -4.8943 C   0  0  0  0  0  0  0  0  0  0  0  0
   65.5611   -5.5694   -6.0822 C   0  0  0  0  0  0  0  0  0  0  0  0
   62.5970   -8.3851  -11.2890 O   0  0  0  0  0  0  0  0  0  0  0  0
   62.5170  -10.4154   -9.9706 C   0  0  0  0  0  0  0  0  0  0  0  0
   62.7454   -9.7715  -11.2971 C   0  0  0  0  0  0  0  0  0  0  0  0
 14 15  1  0  0  0
 15 13  1  0  0  0
 13  1  1  0  0  0
  1  2  2  0  0  0
  2  3  1  0  0  0
  3  4  2  0  0  0
  4  5  1  0  0  0
  5  6  2  0  0  0
  4  7  1  0  0  0
  7  8  2  0  0  0
  8  9  1  0  0  0
  9 10  1  0  0  0
 10 11  1  0  0  0
 11 12  1  0  0  0
  6  1  1  0  0  0
 12  7  1  0  0  0
M  END
> <minimizedAffinity>
-2.41619

> <CNNscore>
0.5922458172

> <CNNaffinity>
3.3881473541

> <CNN_VS>
2.0066161156

> <CNNaffinity_variance>
0.1040505767

$$$$
[H]C1=C(c2c([H])c([H])c(OC([H])([H])C([H])([H])[H])c([H])c2[H])C([H])([H])C([H])([H])C([H])([H])C1([H])[H]


 15 16  0  0  0  0  0  0  0  0999 V2000
   61.7845   -7.7207   -3.7540 C   0  0  0  0  0  0  0  0  0  0  0  0
   62.7307   -7.1332   -4.5302 C   0  0  0  0  0  0  0  0  0  0  0  0
   62.9588   -7.5734   -5.8398 C   0  0  0  0  0  0  0  0  0  0  0  0
   62.2459   -8.6115   -6.4036 C   0  0  0  0  0  0  0  0  0  0  0  0
   61.2920   -9.1814   -5.5778 C   0  0  0  0  0  0  0  0  0  0  0  0
   61.0604   -8.7545   -4.2871 C   0  0  0  0  0  0  0  0  0  0  0  0
   62.4792   -9.0751   -7.7674 C   0  0  0  0  0  0  0  0  0  0  0  0
   61.8387  -10.0921   -8.3189 C   0  0  0  0  0  0  0  0  0  0  0  0
   62.1880  -10.4498   -9.7308 C   0  0  0  0  0  0  0  0  0  0  0  0
   61.9632   -9.1771  -10.5190 C   0  0  0  0  0  0  0  0  0  0  0  0
   62.9173   -8.1395  -10.0379 C   0  0  0  0  0  0  0  0  0  0  0  0
   63.4822   -8.4406   -8.6886 C   0  0  0  0  0  0  0  0  0  0  0  0
   61.5058   -7.3358   -2.4495 O   0  0  0  0  0  0  0  0  0  0  0  0
   61.6076   -7.4490   -0.0321 C   0  0  0  0  0  0  0  0  0  0  0  0
   62.0805   -7.9692   -1.3482 C   0  0  0  0  0  0  0  0  0  0  0  0
 14 15  1  0  0  0
 15 13  1  0  0  0
 13  1  1  0  0  0
  1  2  2  0  0  0
  2  3  1  0  0  0
  3  4  2  0  0  0
  4  5  1  0  0  0
  5  6  2  0  0  0
  4  7  1  0  0  0
  7  8  2  0  0  0
  8  9  1  0  0  0
  9 10  1  0  0  0
 10 11  1  0  0  0
 11 12  1  0  0  0
  6  1  1  0  0  0
 12  7  1  0  0  0
M  END
> <minimizedAffinity>
-2.42726

> <CNNscore>
0.5368193984

> <CNNaffinity>
3.6137595177

> <CNN_VS>
1.9399361610

> <CNNaffinity_variance>
0.1723112762

$$$$
[H]C1=C(c2c([H])c([H])c(OC([H])([H])C([H])([H])[H])c([H])c2[H])C([H])([H])C([H])([H])C([H])([H])C1([H])[H]


 15 16  0  0  0  0  0  0  0  0999 V2000
   56.0809   -4.3594   -9.6666 C   0  0  0  0  0  0  0  0  0  0  0  0
   56.0037   -4.6165   -8.3359 C   0  0  0  0  0  0  0  0  0  0  0  0
   54.8022   -4.4375   -7.6394 C   0  0  0  0  0  0  0  0  0  0  0  0
   53.6500   -3.9971   -8.2575 C   0  0  0  0  0  0  0  0  0  0  0  0
   53.7734   -3.7472   -9.6136 C   0  0  0  0  0  0  0  0  0  0  0  0
   54.9523   -3.9206  -10.3077 C   0  0  0  0  0  0  0  0  0  0  0  0
   52.3951   -3.8082   -7.5371 C   0  0  0  0  0  0  0  0  0  0  0  0
   51.5422   -2.8293   -7.7883 C   0  0  0  0  0  0  0  0  0  0  0  0
   50.2938   -2.7666   -6.9632 C   0  0  0  0  0  0  0  0  0  0  0  0
   49.6376   -4.1177   -7.1515 C   0  0  0  0  0  0  0  0  0  0  0  0
   50.5312   -5.1681   -6.5889 C   0  0  0  0  0  0  0  0  0  0  0  0
   51.9440   -4.7123   -6.4252 C   0  0  0  0  0  0  0  0  0  0  0  0
   57.2376   -4.5148  -10.4187 O   0  0  0  0  0  0  0  0  0  0  0  0
   58.6006   -3.9707  -12.3455 C   0  0  0  0  0  0  0  0  0  0  0  0
   57.2579   -4.3253  -11.7999 C   0  0  0  0  0  0  0  0  0  0  0  0
 14 15  1  0  0  0
 15 13  1  0  0  0
 13  1  1  0  0  0
  1  2  2  0  0  0
  2  3  1  0  0  0
  3  4  2  0  0  0
  4  5  1  0  0  0
  5  6  2  0  0  0
  4  7  1  0  0  0
  7  8  2  0  0  0
  8  9  1  0  0  0
  9 10  1  0  0  0
 10 11  1  0  0  0
 11 12  1  0  0  0
  6  1  1  0  0  0
 12  7  1  0  0  0
M  END
> <minimizedAffinity>
-7.66228

> <CNNscore>
0.5285169482

> <CNNaffinity>
4.8999166489

> <CNN_VS>
2.5896890163

> <CNNaffinity_variance>
0.2068374902

$$$$
[H]C1=C(c2c([H])c([H])c(OC([H])([H])C([H])([H])[H])c([H])c2[H])C([H])([H])C([H])([H])C([H])([H])C1([H])[H]


 15 16  0  0  0  0  0  0  0  0999 V2000
   60.8726  -10.5038   -4.5519 C   0  0  0  0  0  0  0  0  0  0  0  0
   61.2311   -9.6680   -5.5598 C   0  0  0  0  0  0  0  0  0  0  0  0
   61.6130  -10.1731   -6.8088 C   0  0  0  0  0  0  0  0  0  0  0  0
   61.6453  -11.5257   -7.0787 C   0  0  0  0  0  0  0  0  0  0  0  0
   61.2725  -12.3411   -6.0238 C   0  0  0  0  0  0  0  0  0  0  0  0
   60.8949  -11.8527   -4.7907 C   0  0  0  0  0  0  0  0  0  0  0  0
   62.0428  -12.0582   -8.3779 C   0  0  0  0  0  0  0  0  0  0  0  0
   61.3025  -12.8912   -9.0899 C   0  0  0  0  0  0  0  0  0  0  0  0
   61.8463  -13.3513  -10.4074 C   0  0  0  0  0  0  0  0  0  0  0  0
   62.1212  -12.0778  -11.1782 C   0  0  0  0  0  0  0  0  0  0  0  0
   63.1779  -11.3051  -10.4676 C   0  0  0  0  0  0  0  0  0  0  0  0
   63.3462  -11.7137   -9.0410 C   0  0  0  0  0  0  0  0  0  0  0  0
   60.4837  -10.0725   -3.2908 O   0  0  0  0  0  0  0  0  0  0  0  0
   60.9736  -10.9193   -1.0751 C   0  0  0  0  0  0  0  0  0  0  0  0
   60.1025  -10.9605   -2.2857 C   0  0  0  0  0  0  0  0  0  0  0  0
 14 15  1  0  0  0
 15 13  1  0  0  0
 13  1  1  0  0  0
  1  2  2  0  0  0
  2  3  1  0  0  0
  3  4  2  0  0  0
  4  5  1  0  0  0
  5  6  2  0  0  0
  4  7  1  0  0  0
  7  8  2  0  0  0
  8  9  1  0  0  0
  9 10  1  0  0  0
 10 11  1  0  0  0
 11 12  1  0  0  0
  6  1  1  0  0  0
 12  7  1  0  0  0
M  END
> <minimizedAffinity>
-2.27252

> <CNNscore>
0.5222513080

> <CNNaffinity>
3.4005894661

> <CNN_VS>
1.7759623528

> <CNNaffinity_variance>
0.0449810550

$$$$
[H]C1=C(c2c([H])c([H])c(OC([H])([H])C([H])([H])[H])c([H])c2[H])C([H])([H])C([H])([H])C([H])([H])C1([H])[H]


 15 16  0  0  0  0  0  0  0  0999 V2000
   61.4421   -8.1241   -4.8584 C   0  0  0  0  0  0  0  0  0  0  0  0
   62.0457   -7.7774   -6.0240 C   0  0  0  0  0  0  0  0  0  0  0  0
   62.1339   -8.6876   -7.0844 C   0  0  0  0  0  0  0  0  0  0  0  0
   61.6206   -9.9657   -7.0039 C   0  0  0  0  0  0  0  0  0  0  0  0
   61.0143  -10.2770   -5.7988 C   0  0  0  0  0  0  0  0  0  0  0  0
   60.9227   -9.3873   -4.7492 C   0  0  0  0  0  0  0  0  0  0  0  0
   61.7097  -10.9189   -8.1052 C   0  0  0  0  0  0  0  0  0  0  0  0
   62.2936  -10.6548   -9.2620 C   0  0  0  0  0  0  0  0  0  0  0  0
   62.3057  -11.7371  -10.2972 C   0  0  0  0  0  0  0  0  0  0  0  0
   62.9647  -12.9171   -9.6153 C   0  0  0  0  0  0  0  0  0  0  0  0
   62.1090  -13.3530   -8.4768 C   0  0  0  0  0  0  0  0  0  0  0  0
   61.1385  -12.3068   -8.0364 C   0  0  0  0  0  0  0  0  0  0  0  0
   61.3193   -7.2735   -3.7680 O   0  0  0  0  0  0  0  0  0  0  0  0
   62.5055   -7.9380   -1.7636 C   0  0  0  0  0  0  0  0  0  0  0  0
   61.2010   -7.7496   -2.4629 C   0  0  0  0  0  0  0  0  0  0  0  0
 14 15  1  0  0  0
 15 13  1  0  0  0
 13  1  1  0  0  0
  1  2  2  0  0  0
  2  3  1  0  0  0
  3  4  2  0  0  0
  4  5  1  0  0  0
  5  6  2  0  0  0
  4  7  1  0  0  0
  7  8  2  0  0  0
  8  9  1  0  0  0
  9 10  1  0  0  0
 10 11  1  0  0  0
 11 12  1  0  0  0
  6  1  1  0  0  0
 12  7  1  0  0  0
M  END
> <minimizedAffinity>
-2.67897

> <CNNscore>
0.5056493282

> <CNNaffinity>
3.5968601704

> <CNN_VS>
1.8187499046

> <CNNaffinity_variance>
0.0727125481

$$$$
[H]C1=C(c2c([H])c([H])c(OC([H])([H])C([H])([H])[H])c([H])c2[H])C([H])([H])C([H])([H])C([H])([H])C1([H])[H]


 15 16  0  0  0  0  0  0  0  0999 V2000
   56.3237   -4.4422   -9.4231 C   0  0  0  0  0  0  0  0  0  0  0  0
   55.2666   -3.9409  -10.1118 C   0  0  0  0  0  0  0  0  0  0  0  0
   54.0255   -3.7602   -9.4891 C   0  0  0  0  0  0  0  0  0  0  0  0
   53.8127   -4.0766   -8.1631 C   0  0  0  0  0  0  0  0  0  0  0  0
   54.9164   -4.5843   -7.4991 C   0  0  0  0  0  0  0  0  0  0  0  0
   56.1423   -4.7657   -8.1041 C   0  0  0  0  0  0  0  0  0  0  0  0
   52.5217   -3.8911   -7.5087 C   0  0  0  0  0  0  0  0  0  0  0  0
   51.6595   -2.9434   -7.8364 C   0  0  0  0  0  0  0  0  0  0  0  0
   50.3731   -2.8799   -7.0721 C   0  0  0  0  0  0  0  0  0  0  0  0
   49.7570   -4.2527   -7.2374 C   0  0  0  0  0  0  0  0  0  0  0  0
   50.6468   -5.2591   -6.5942 C   0  0  0  0  0  0  0  0  0  0  0  0
   52.0399   -4.7632   -6.3841 C   0  0  0  0  0  0  0  0  0  0  0  0
   57.5805   -4.6471   -9.9765 O   0  0  0  0  0  0  0  0  0  0  0  0
   59.5269   -5.6808   -8.9717 C   0  0  0  0  0  0  0  0  0  0  0  0
   58.2900   -5.8331   -9.7922 C   0  0  0  0  0  0  0  0  0  0  0  0
 14 15  1  0  0  0
 15 13  1  0  0  0
 13  1  1  0  0  0
  1  2  2  0  0  0
  2  3  1  0  0  0
  3  4  2  0  0  0
  4  5  1  0  0  0
  5  6  2  0  0  0
  4  7  1  0  0  0
  7  8  2  0  0  0
  8  9  1  0  0  0
  9 10  1  0  0  0
 10 11  1  0  0  0
 11 12  1  0  0  0
  6  1  1  0  0  0
 12  7  1  0  0  0
M  END
> <minimizedAffinity>
-7.53079

> <CNNscore>
0.4706644416

> <CNNaffinity>
4.9291152954

> <CNN_VS>
2.3199594021

> <CNNaffinity_variance>
0.1078521982

$$$$
[H]C1=C(c2c([H])c([H])c(OC([H])([H])C([H])([H])[H])c([H])c2[H])C([H])([H])C([H])([H])C([H])([H])C1([H])[H]


 15 16  0  0  0  0  0  0  0  0999 V2000
   57.5233   -3.7605  -13.8592 C   0  0  0  0  0  0  0  0  0  0  0  0
   56.2337   -3.8206  -13.4392 C   0  0  0  0  0  0  0  0  0  0  0  0
   55.9278   -4.0719  -12.0961 C   0  0  0  0  0  0  0  0  0  0  0  0
   56.9044   -4.2690  -11.1417 C   0  0  0  0  0  0  0  0  0  0  0  0
   58.2044   -4.1992  -11.6129 C   0  0  0  0  0  0  0  0  0  0  0  0
   58.5151   -3.9522  -12.9335 C   0  0  0  0  0  0  0  0  0  0  0  0
   56.5921   -4.5317   -9.7407 C   0  0  0  0  0  0  0  0  0  0  0  0
   57.4827   -4.9377   -8.8514 C   0  0  0  0  0  0  0  0  0  0  0  0
   57.0099   -5.1652   -7.4486 C   0  0  0  0  0  0  0  0  0  0  0  0
   56.3898   -3.8488   -7.0313 C   0  0  0  0  0  0  0  0  0  0  0  0
   55.2081   -3.5789   -7.8969 C   0  0  0  0  0  0  0  0  0  0  0  0
   55.2143   -4.3699   -9.1637 C   0  0  0  0  0  0  0  0  0  0  0  0
   57.8982   -3.5156  -15.1734 O   0  0  0  0  0  0  0  0  0  0  0  0
   56.3362   -3.0330  -16.9605 C   0  0  0  0  0  0  0  0  0  0  0  0
   57.1909   -4.0338  -16.2575 C   0  0  0  0  0  0  0  0  0  0  0  0
 14 15  1  0  0  0
 15 13  1  0  0  0
 13  1  1  0  0  0
  1  2  2  0  0  0
  2  3  1  0  0  0
  3  4  2  0  0  0
  4  5  1  0  0  0
  5  6  2  0  0  0
  4  7  1  0  0  0
  7  8  2  0  0  0
  8  9  1  0  0  0
  9 10  1  0  0  0
 10 11  1  0  0  0
 11 12  1  0  0  0
  6  1  1  0  0  0
 12  7  1  0  0  0
M  END
> <minimizedAffinity>
-6.08992

> <CNNscore>
0.4434146285

> <CNNaffinity>
4.2754960060

> <CNN_VS>
1.8958175182

> <CNNaffinity_variance>
0.2323026359

$$$$
[H]C1=C(c2c([H])c([H])c(OC([H])([H])C([H])([H])[H])c([H])c2[H])C([H])([H])C([H])([H])C([H])([H])C1([H])[H]


 15 16  0  0  0  0  0  0  0  0999 V2000
   60.5057  -10.8818   -4.3266 C   0  0  0  0  0  0  0  0  0  0  0  0
   60.6337   -9.5607   -4.0416 C   0  0  0  0  0  0  0  0  0  0  0  0
   61.1534   -8.6698   -4.9886 C   0  0  0  0  0  0  0  0  0  0  0  0
   61.5572   -9.0794   -6.2428 C   0  0  0  0  0  0  0  0  0  0  0  0
   61.4092  -10.4333   -6.4910 C   0  0  0  0  0  0  0  0  0  0  0  0
   60.8985  -11.3180   -5.5646 C   0  0  0  0  0  0  0  0  0  0  0  0
   62.0999   -8.1560   -7.2338 C   0  0  0  0  0  0  0  0  0  0  0  0
   62.8796   -7.1304   -6.9353 C   0  0  0  0  0  0  0  0  0  0  0  0
   63.3593   -6.2707   -8.0640 C   0  0  0  0  0  0  0  0  0  0  0  0
   64.0590   -7.2259   -9.0072 C   0  0  0  0  0  0  0  0  0  0  0  0
   63.0605   -8.1966   -9.5356 C   0  0  0  0  0  0  0  0  0  0  0  0
   61.8217   -8.2764   -8.7053 C   0  0  0  0  0  0  0  0  0  0  0  0
   59.9993  -11.8196   -3.4367 O   0  0  0  0  0  0  0  0  0  0  0  0
   59.3974  -11.7861   -1.0908 C   0  0  0  0  0  0  0  0  0  0  0  0
   60.4626  -11.9273   -2.1261 C   0  0  0  0  0  0  0  0  0  0  0  0
 14 15  1  0  0  0
 15 13  1  0  0  0
 13  1  1  0  0  0
  1  2  2  0  0  0
  2  3  1  0  0  0
  3  4  2  0  0  0
  4  5  1  0  0  0
  5  6  2  0  0  0
  4  7  1  0  0  0
  7  8  2  0  0  0
  8  9  1  0  0  0
  9 10  1  0  0  0
 10 11  1  0  0  0
 11 12  1  0  0  0
  6  1  1  0  0  0
 12  7  1  0  0  0
M  END
> <minimizedAffinity>
-2.45632

> <CNNscore>
0.4160905778

> <CNNaffinity>
3.4295108318

> <CNN_VS>
1.4269871712

> <CNNaffinity_variance>
0.0470901728

$$$$
[H]C1=C(c2c([H])c([H])c(OC([H])([H])C([H])([H])[H])c([H])c2[H])C([H])([H])C([H])([H])C([H])([H])C1([H])[H]


 15 16  0  0  0  0  0  0  0  0999 V2000
   57.8734   -4.5896  -11.2296 C   0  0  0  0  0  0  0  0  0  0  0  0
   56.6516   -4.0947  -11.5541 C   0  0  0  0  0  0  0  0  0  0  0  0
   55.6134   -4.0747  -10.6147 C   0  0  0  0  0  0  0  0  0  0  0  0
   55.7730   -4.5490   -9.3289 C   0  0  0  0  0  0  0  0  0  0  0  0
   57.0334   -5.0440   -9.0410 C   0  0  0  0  0  0  0  0  0  0  0  0
   58.0617   -5.0678   -9.9596 C   0  0  0  0  0  0  0  0  0  0  0  0
   54.6949   -4.5312   -8.3456 C   0  0  0  0  0  0  0  0  0  0  0  0
   53.4810   -4.0684   -8.5924 C   0  0  0  0  0  0  0  0  0  0  0  0
   52.4794   -4.1173   -7.4799 C   0  0  0  0  0  0  0  0  0  0  0  0
   52.4301   -5.5731   -7.0678 C   0  0  0  0  0  0  0  0  0  0  0  0
   53.7625   -5.9653   -6.5300 C   0  0  0  0  0  0  0  0  0  0  0  0
   54.8585   -5.0377   -6.9406 C   0  0  0  0  0  0  0  0  0  0  0  0
   58.9461   -4.6401  -12.1097 O   0  0  0  0  0  0  0  0  0  0  0  0
   60.5269   -3.6558  -13.6585 C   0  0  0  0  0  0  0  0  0  0  0  0
   59.1451   -3.6749  -13.0961 C   0  0  0  0  0  0  0  0  0  0  0  0
 14 15  1  0  0  0
 15 13  1  0  0  0
 13  1  1  0  0  0
  1  2  2  0  0  0
  2  3  1  0  0  0
  3  4  2  0  0  0
  4  5  1  0  0  0
  5  6  2  0  0  0
  4  7  1  0  0  0
  7  8  2  0  0  0
  8  9  1  0  0  0
  9 10  1  0  0  0
 10 11  1  0  0  0
 11 12  1  0  0  0
  6  1  1  0  0  0
 12  7  1  0  0  0
M  END
> <minimizedAffinity>
-7.05146

> <CNNscore>
0.4061261415

> <CNNaffinity>
4.6212244034

> <CNN_VS>
1.8768000603

> <CNNaffinity_variance>
0.1512414366

$$$$
[H]c1nc2c([H])c(OC([H])([H])C([H])([H])C([H])([H])N3C([H])([H])C([H])([H])N(C([H])([H])[H])C([H])([H])C3([H])[H])c(OC([H])([H])[H])c([H])c2c(N([H])c2c([H])c(OC([H])([H])[H])c(OC([H])([H])[H])c(OC([H])([H])[H])c2[H])c1C#N


 39 42  0  0  0  0  0  0  0  0999 V2000
   54.0110   -5.3795   -7.3212 C   0  0  0  0  0  0  0  0  0  0  0  0
   54.4987   -4.4435   -8.2265 C   0  0  0  0  0  0  0  0  0  0  0  0
   55.8393   -4.1223   -8.1538 C   0  0  0  0  0  0  0  0  0  0  0  0
   56.6432   -4.7023   -7.2313 N   0  0  0  0  0  0  0  0  0  0  0  0
   56.1649   -5.6129   -6.3519 C   0  0  0  0  0  0  0  0  0  0  0  0
   56.9948   -6.2073   -5.4074 C   0  0  0  0  0  0  0  0  0  0  0  0
   56.5187   -7.1373   -4.5082 C   0  0  0  0  0  0  0  0  0  0  0  0
   55.1719   -7.4852   -4.5529 C   0  0  0  0  0  0  0  0  0  0  0  0
   54.3436   -6.9007   -5.4852 C   0  0  0  0  0  0  0  0  0  0  0  0
   54.8260   -5.9729   -6.3802 C   0  0  0  0  0  0  0  0  0  0  0  0
   52.6207   -5.7239   -7.3864 N   0  0  0  0  0  0  0  0  0  0  0  0
   52.2960   -6.4906   -8.0073 H   0  0  0  0  0  0  0  0  0  0  0  0
   50.1913   -3.2083   -6.2413 C   0  0  0  0  0  0  0  0  0  0  0  0
   51.1128   -3.8512   -7.0361 C   0  0  0  0  0  0  0  0  0  0  0  0
   51.6720   -5.0290   -6.6110 C   0  0  0  0  0  0  0  0  0  0  0  0
   51.2899   -5.5353   -5.3907 C   0  0  0  0  0  0  0  0  0  0  0  0
   50.3704   -4.9168   -4.5705 C   0  0  0  0  0  0  0  0  0  0  0  0
   49.8129   -3.7218   -5.0188 C   0  0  0  0  0  0  0  0  0  0  0  0
   50.1405   -1.3298   -7.7304 C   0  0  0  0  0  0  0  0  0  0  0  0
   49.5891   -2.0089   -6.6208 O   0  0  0  0  0  0  0  0  0  0  0  0
   49.9770   -5.4161   -3.3380 O   0  0  0  0  0  0  0  0  0  0  0  0
   50.8213   -5.9448   -2.3600 C   0  0  0  0  0  0  0  0  0  0  0  0
   48.8872   -3.0861   -4.2093 O   0  0  0  0  0  0  0  0  0  0  0  0
   47.5206   -3.1271   -4.5886 C   0  0  0  0  0  0  0  0  0  0  0  0
   54.7316   -8.4253   -3.6315 O   0  0  0  0  0  0  0  0  0  0  0  0
   53.9903   -8.0200   -2.5042 C   0  0  0  0  0  0  0  0  0  0  0  0
   53.6382   -3.8278   -9.2080 C   0  0  0  0  0  0  0  0  0  0  0  0
   52.9536   -3.3370   -9.9865 N   0  0  0  0  0  0  0  0  0  0  0  0
   57.3999   -7.6875   -3.5970 O   0  0  0  0  0  0  0  0  0  0  0  0
   57.7233   -7.0197   -2.4103 C   0  0  0  0  0  0  0  0  0  0  0  0
   59.1738   -6.5533   -2.3558 C   0  0  0  0  0  0  0  0  0  0  0  0
   60.1153   -7.7087   -2.5740 C   0  0  0  0  0  0  0  0  0  0  0  0
   61.0525   -7.3497   -3.6238 N   0  0  0  0  0  0  0  0  0  0  0  0
   60.7106   -8.0804   -4.8583 C   0  0  0  0  0  0  0  0  0  0  0  0
   60.8083   -9.5517   -4.6729 C   0  0  0  0  0  0  0  0  0  0  0  0
   61.8732  -10.0465   -3.8916 N   0  0  0  0  0  0  0  0  0  0  0  0
   61.6445  -11.3559   -3.3312 C   0  0  0  0  0  0  0  0  0  0  0  0
   62.5978   -9.1721   -3.0585 C   0  0  0  0  0  0  0  0  0  0  0  0
   62.4154   -7.7118   -3.2495 C   0  0  0  0  0  0  0  0  0  0  0  0
 19 20  1  0  0  0
 20 13  1  0  0  0
 13 14  2  0  0  0
 14 15  1  0  0  0
 15 11  1  0  0  0
 11  1  1  0  0  0
  1  2  2  0  0  0
  2  3  1  0  0  0
  3  4  2  0  0  0
  4  5  1  0  0  0
  5  6  2  0  0  0
  6  7  1  0  0  0
  7 29  1  0  0  0
 29 30  1  0  0  0
 30 31  1  0  0  0
 31 32  1  0  0  0
 32 33  1  0  0  0
 33 34  1  0  0  0
 34 35  1  0  0  0
 35 36  1  0  0  0
 36 37  1  0  0  0
 36 38  1  0  0  0
 38 39  1  0  0  0
  7  8  2  0  0  0
  8 25  1  0  0  0
 25 26  1  0  0  0
  8  9  1  0  0  0
  9 10  2  0  0  0
  2 27  1  0  0  0
 27 28  3  0  0  0
 15 16  2  0  0  0
 16 17  1  0  0  0
 17 21  1  0  0  0
 21 22  1  0  0  0
 17 18  2  0  0  0
 18 23  1  0  0  0
 23 24  1  0  0  0
 18 13  1  0  0  0
 10  1  1  0  0  0
 10  5  1  0  0  0
 39 33  1  0  0  0
 11 12  1  0  0  0
M  END
> <minimizedAffinity>
-7.52565

> <CNNscore>
0.7333512306

> <CNNaffinity>
7.4249191284

> <CNN_VS>
5.4450736046

> <CNNaffinity_variance>
0.0818542615

$$$$
[H]c1nc2c([H])c(OC([H])([H])C([H])([H])C([H])([H])N3C([H])([H])C([H])([H])N(C([H])([H])[H])C([H])([H])C3([H])[H])c(OC([H])([H])[H])c([H])c2c(N([H])c2c([H])c(OC([H])([H])[H])c(OC([H])([H])[H])c(OC([H])([H])[H])c2[H])c1C#N


 39 42  0  0  0  0  0  0  0  0999 V2000
   53.0179   -5.1448   -6.2915 C   0  0  0  0  0  0  0  0  0  0  0  0
   52.9470   -4.1645   -7.2751 C   0  0  0  0  0  0  0  0  0  0  0  0
   54.1194   -3.5261   -7.6270 C   0  0  0  0  0  0  0  0  0  0  0  0
   55.2916   -3.8491   -7.0310 N   0  0  0  0  0  0  0  0  0  0  0  0
   55.3567   -4.8039   -6.0741 C   0  0  0  0  0  0  0  0  0  0  0  0
   56.5633   -5.1333   -5.4661 C   0  0  0  0  0  0  0  0  0  0  0  0
   56.6415   -6.1054   -4.4919 C   0  0  0  0  0  0  0  0  0  0  0  0
   55.4788   -6.7696   -4.1123 C   0  0  0  0  0  0  0  0  0  0  0  0
   54.2801   -6.4487   -4.7096 C   0  0  0  0  0  0  0  0  0  0  0  0
   54.2096   -5.4770   -5.6820 C   0  0  0  0  0  0  0  0  0  0  0  0
   51.8081   -5.8171   -5.9173 N   0  0  0  0  0  0  0  0  0  0  0  0
   51.7179   -6.8450   -6.0355 H   0  0  0  0  0  0  0  0  0  0  0  0
   49.0913   -3.3717   -5.4922 C   0  0  0  0  0  0  0  0  0  0  0  0
   50.1498   -4.0467   -6.0562 C   0  0  0  0  0  0  0  0  0  0  0  0
   50.7219   -5.0962   -5.3838 C   0  0  0  0  0  0  0  0  0  0  0  0
   50.2139   -5.4441   -4.1540 C   0  0  0  0  0  0  0  0  0  0  0  0
   49.1555   -4.7892   -3.5610 C   0  0  0  0  0  0  0  0  0  0  0  0
   48.5872   -3.7262   -4.2587 C   0  0  0  0  0  0  0  0  0  0  0  0
   48.9657   -1.9201   -7.3963 C   0  0  0  0  0  0  0  0  0  0  0  0
   48.4693   -2.2979   -6.1285 O   0  0  0  0  0  0  0  0  0  0  0  0
   48.6343   -5.1293   -2.3217 O   0  0  0  0  0  0  0  0  0  0  0  0
   49.1001   -6.1471   -1.4875 C   0  0  0  0  0  0  0  0  0  0  0  0
   47.5229   -3.0564   -3.6796 O   0  0  0  0  0  0  0  0  0  0  0  0
   47.1282   -1.8119   -4.2350 C   0  0  0  0  0  0  0  0  0  0  0  0
   55.5994   -7.7417   -3.1290 O   0  0  0  0  0  0  0  0  0  0  0  0
   54.7196   -7.7499   -2.0285 C   0  0  0  0  0  0  0  0  0  0  0  0
   51.6954   -3.8235   -7.9077 C   0  0  0  0  0  0  0  0  0  0  0  0
   50.7003   -3.5547   -8.4110 N   0  0  0  0  0  0  0  0  0  0  0  0
   57.8736   -6.3813   -3.9305 O   0  0  0  0  0  0  0  0  0  0  0  0
   58.4111   -7.6731   -3.9657 C   0  0  0  0  0  0  0  0  0  0  0  0
   59.4064   -7.9438   -2.8430 C   0  0  0  0  0  0  0  0  0  0  0  0
   58.8213   -8.8886   -1.8262 C   0  0  0  0  0  0  0  0  0  0  0  0
   59.6348   -8.8363   -0.6242 N   0  0  0  0  0  0  0  0  0  0  0  0
   60.9571   -8.2703   -0.9504 C   0  0  0  0  0  0  0  0  0  0  0  0
   61.6886   -9.1103   -1.9342 C   0  0  0  0  0  0  0  0  0  0  0  0
   61.5887  -10.5112   -1.8053 N   0  0  0  0  0  0  0  0  0  0  0  0
   61.8626  -11.2435   -3.0176 C   0  0  0  0  0  0  0  0  0  0  0  0
   60.5790  -11.0715   -0.9989 C   0  0  0  0  0  0  0  0  0  0  0  0
   59.8403  -10.1731   -0.0774 C   0  0  0  0  0  0  0  0  0  0  0  0
 19 20  1  0  0  0
 20 13  1  0  0  0
 13 14  2  0  0  0
 14 15  1  0  0  0
 15 11  1  0  0  0
 11  1  1  0  0  0
  1  2  2  0  0  0
  2  3  1  0  0  0
  3  4  2  0  0  0
  4  5  1  0  0  0
  5  6  2  0  0  0
  6  7  1  0  0  0
  7 29  1  0  0  0
 29 30  1  0  0  0
 30 31  1  0  0  0
 31 32  1  0  0  0
 32 33  1  0  0  0
 33 34  1  0  0  0
 34 35  1  0  0  0
 35 36  1  0  0  0
 36 37  1  0  0  0
 36 38  1  0  0  0
 38 39  1  0  0  0
  7  8  2  0  0  0
  8 25  1  0  0  0
 25 26  1  0  0  0
  8  9  1  0  0  0
  9 10  2  0  0  0
  2 27  1  0  0  0
 27 28  3  0  0  0
 15 16  2  0  0  0
 16 17  1  0  0  0
 17 21  1  0  0  0
 21 22  1  0  0  0
 17 18  2  0  0  0
 18 23  1  0  0  0
 23 24  1  0  0  0
 18 13  1  0  0  0
 10  1  1  0  0  0
 10  5  1  0  0  0
 39 33  1  0  0  0
 11 12  1  0  0  0
M  END
> <minimizedAffinity>
-0.14478

> <CNNscore>
0.6197032928

> <CNNaffinity>
7.2276906967

> <CNN_VS>
4.4790239334

> <CNNaffinity_variance>
0.6876789331

$$$$
[H]c1nc2c([H])c(OC([H])([H])C([H])([H])C([H])([H])N3C([H])([H])C([H])([H])N(C([H])([H])[H])C([H])([H])C3([H])[H])c(OC([H])([H])[H])c([H])c2c(N([H])c2c([H])c(OC([H])([H])[H])c(OC([H])([H])[H])c(OC([H])([H])[H])c2[H])c1C#N


 39 42  0  0  0  0  0  0  0  0999 V2000
   53.9799   -5.4909   -7.1783 C   0  0  0  0  0  0  0  0  0  0  0  0
   54.4792   -4.5711   -8.0938 C   0  0  0  0  0  0  0  0  0  0  0  0
   55.8206   -4.2543   -8.0145 C   0  0  0  0  0  0  0  0  0  0  0  0
   56.6140   -4.8232   -7.0763 N   0  0  0  0  0  0  0  0  0  0  0  0
   56.1244   -5.7181   -6.1870 C   0  0  0  0  0  0  0  0  0  0  0  0
   56.9437   -6.3012   -5.2263 C   0  0  0  0  0  0  0  0  0  0  0  0
   56.4560   -7.2152   -4.3169 C   0  0  0  0  0  0  0  0  0  0  0  0
   55.1081   -7.5581   -4.3679 C   0  0  0  0  0  0  0  0  0  0  0  0
   54.2903   -6.9848   -5.3162 C   0  0  0  0  0  0  0  0  0  0  0  0
   54.7843   -6.0729   -6.2212 C   0  0  0  0  0  0  0  0  0  0  0  0
   52.5887   -5.8305   -7.2502 N   0  0  0  0  0  0  0  0  0  0  0  0
   52.2616   -6.5817   -7.8886 H   0  0  0  0  0  0  0  0  0  0  0  0
   50.2783   -4.9582   -4.5221 C   0  0  0  0  0  0  0  0  0  0  0  0
   51.2061   -5.6577   -5.2597 C   0  0  0  0  0  0  0  0  0  0  0  0
   51.6424   -5.1521   -6.4575 C   0  0  0  0  0  0  0  0  0  0  0  0
   51.1329   -3.9493   -6.8879 C   0  0  0  0  0  0  0  0  0  0  0  0
   50.2030   -3.2238   -6.1740 C   0  0  0  0  0  0  0  0  0  0  0  0
   49.7719   -3.7527   -4.9598 C   0  0  0  0  0  0  0  0  0  0  0  0
   50.7476   -5.9142   -2.3739 C   0  0  0  0  0  0  0  0  0  0  0  0
   49.7983   -5.4219   -3.2975 O   0  0  0  0  0  0  0  0  0  0  0  0
   49.6810   -2.0106   -6.5967 O   0  0  0  0  0  0  0  0  0  0  0  0
   50.0905   -1.2880   -7.7187 C   0  0  0  0  0  0  0  0  0  0  0  0
   48.8386   -3.0384   -4.2282 O   0  0  0  0  0  0  0  0  0  0  0  0
   47.4740   -3.1301   -4.6057 C   0  0  0  0  0  0  0  0  0  0  0  0
   54.6560   -8.4820   -3.4359 O   0  0  0  0  0  0  0  0  0  0  0  0
   53.8457   -8.0663   -2.3610 C   0  0  0  0  0  0  0  0  0  0  0  0
   53.6298   -3.9672   -9.0921 C   0  0  0  0  0  0  0  0  0  0  0  0
   52.9555   -3.4851   -9.8850 N   0  0  0  0  0  0  0  0  0  0  0  0
   57.3270   -7.7548   -3.3898 O   0  0  0  0  0  0  0  0  0  0  0  0
   57.6132   -7.0877   -2.1931 C   0  0  0  0  0  0  0  0  0  0  0  0
   59.0391   -6.5522   -2.1265 C   0  0  0  0  0  0  0  0  0  0  0  0
   60.0206   -7.6719   -1.8989 C   0  0  0  0  0  0  0  0  0  0  0  0
   61.1756   -7.4550   -2.7522 N   0  0  0  0  0  0  0  0  0  0  0  0
   60.8514   -7.8651   -4.1313 C   0  0  0  0  0  0  0  0  0  0  0  0
   60.5166   -9.3108   -4.2120 C   0  0  0  0  0  0  0  0  0  0  0  0
   61.2684  -10.2047   -3.4217 N   0  0  0  0  0  0  0  0  0  0  0  0
   60.6075  -11.4563   -3.1430 C   0  0  0  0  0  0  0  0  0  0  0  0
   62.0592   -9.7129   -2.3652 C   0  0  0  0  0  0  0  0  0  0  0  0
   62.3115   -8.2519   -2.3013 C   0  0  0  0  0  0  0  0  0  0  0  0
 19 20  1  0  0  0
 20 13  1  0  0  0
 13 14  2  0  0  0
 14 15  1  0  0  0
 15 11  1  0  0  0
 11  1  1  0  0  0
  1  2  2  0  0  0
  2  3  1  0  0  0
  3  4  2  0  0  0
  4  5  1  0  0  0
  5  6  2  0  0  0
  6  7  1  0  0  0
  7 29  1  0  0  0
 29 30  1  0  0  0
 30 31  1  0  0  0
 31 32  1  0  0  0
 32 33  1  0  0  0
 33 34  1  0  0  0
 34 35  1  0  0  0
 35 36  1  0  0  0
 36 37  1  0  0  0
 36 38  1  0  0  0
 38 39  1  0  0  0
  7  8  2  0  0  0
  8 25  1  0  0  0
 25 26  1  0  0  0
  8  9  1  0  0  0
  9 10  2  0  0  0
  2 27  1  0  0  0
 27 28  3  0  0  0
 15 16  2  0  0  0
 16 17  1  0  0  0
 17 21  1  0  0  0
 21 22  1  0  0  0
 17 18  2  0  0  0
 18 23  1  0  0  0
 23 24  1  0  0  0
 18 13  1  0  0  0
 10  1  1  0  0  0
 10  5  1  0  0  0
 39 33  1  0  0  0
 11 12  1  0  0  0
M  END
> <minimizedAffinity>
-7.38257

> <CNNscore>
0.5746084452

> <CNNaffinity>
7.2538251877

> <CNN_VS>
4.1681094170

> <CNNaffinity_variance>
0.1290132403

$$$$
[H]c1nc2c([H])c(OC([H])([H])C([H])([H])C([H])([H])N3C([H])([H])C([H])([H])N(C([H])([H])[H])C([H])([H])C3([H])[H])c(OC([H])([H])[H])c([H])c2c(N([H])c2c([H])c(OC([H])([H])[H])c(OC([H])([H])[H])c(OC([H])([H])[H])c2[H])c1C#N


 39 42  0  0  0  0  0  0  0  0999 V2000
   53.0404   -4.6789   -7.4699 C   0  0  0  0  0  0  0  0  0  0  0  0
   51.8826   -3.9114   -7.4069 C   0  0  0  0  0  0  0  0  0  0  0  0
   51.7999   -2.8103   -8.2356 C   0  0  0  0  0  0  0  0  0  0  0  0
   52.8138   -2.4964   -9.0763 N   0  0  0  0  0  0  0  0  0  0  0  0
   53.9391   -3.2459   -9.1349 C   0  0  0  0  0  0  0  0  0  0  0  0
   54.9771   -2.9205  -10.0014 C   0  0  0  0  0  0  0  0  0  0  0  0
   56.1268   -3.6779  -10.0707 C   0  0  0  0  0  0  0  0  0  0  0  0
   56.2443   -4.7953   -9.2493 C   0  0  0  0  0  0  0  0  0  0  0  0
   55.2208   -5.1238   -8.3885 C   0  0  0  0  0  0  0  0  0  0  0  0
   54.0755   -4.3630   -8.3248 C   0  0  0  0  0  0  0  0  0  0  0  0
   53.1393   -5.8264   -6.6159 N   0  0  0  0  0  0  0  0  0  0  0  0
   52.9222   -6.7747   -6.9797 H   0  0  0  0  0  0  0  0  0  0  0  0
   55.1735   -5.3497   -3.5867 C   0  0  0  0  0  0  0  0  0  0  0  0
   54.8394   -5.4765   -4.9158 C   0  0  0  0  0  0  0  0  0  0  0  0
   53.5316   -5.6878   -5.2701 C   0  0  0  0  0  0  0  0  0  0  0  0
   52.5856   -5.7671   -4.2750 C   0  0  0  0  0  0  0  0  0  0  0  0
   52.8863   -5.6448   -2.9352 C   0  0  0  0  0  0  0  0  0  0  0  0
   54.2196   -5.4303   -2.5943 C   0  0  0  0  0  0  0  0  0  0  0  0
   57.3730   -6.2315   -3.2216 C   0  0  0  0  0  0  0  0  0  0  0  0
   56.4856   -5.1334   -3.1664 O   0  0  0  0  0  0  0  0  0  0  0  0
   51.9425   -5.7234   -1.9222 O   0  0  0  0  0  0  0  0  0  0  0  0
   51.0948   -6.8042   -1.6733 C   0  0  0  0  0  0  0  0  0  0  0  0
   54.5412   -5.3043   -1.2537 O   0  0  0  0  0  0  0  0  0  0  0  0
   54.8865   -6.4756   -0.5313 C   0  0  0  0  0  0  0  0  0  0  0  0
   57.4165   -5.5318   -9.3493 O   0  0  0  0  0  0  0  0  0  0  0  0
   58.4633   -5.3269   -8.4288 C   0  0  0  0  0  0  0  0  0  0  0  0
   50.8044   -4.2497   -6.5092 C   0  0  0  0  0  0  0  0  0  0  0  0
   49.9467   -4.5164   -5.7959 N   0  0  0  0  0  0  0  0  0  0  0  0
   57.1179   -3.2960  -10.9546 O   0  0  0  0  0  0  0  0  0  0  0  0
   57.4033   -4.0574  -12.0937 C   0  0  0  0  0  0  0  0  0  0  0  0
   56.3868   -3.8713  -13.2147 C   0  0  0  0  0  0  0  0  0  0  0  0
   57.0779   -3.5646  -14.5174 C   0  0  0  0  0  0  0  0  0  0  0  0
   56.2954   -4.1329  -15.6010 N   0  0  0  0  0  0  0  0  0  0  0  0
   57.1735   -4.9366  -16.4718 C   0  0  0  0  0  0  0  0  0  0  0  0
   58.2401   -4.1091  -17.0933 C   0  0  0  0  0  0  0  0  0  0  0  0
   57.8970   -2.8115  -17.5263 N   0  0  0  0  0  0  0  0  0  0  0  0
   59.0126   -1.9032  -17.6337 C   0  0  0  0  0  0  0  0  0  0  0  0
   56.6996   -2.2173  -17.0827 C   0  0  0  0  0  0  0  0  0  0  0  0
   55.6950   -3.0816  -16.4150 C   0  0  0  0  0  0  0  0  0  0  0  0
 19 20  1  0  0  0
 20 13  1  0  0  0
 13 14  2  0  0  0
 14 15  1  0  0  0
 15 11  1  0  0  0
 11  1  1  0  0  0
  1  2  2  0  0  0
  2  3  1  0  0  0
  3  4  2  0  0  0
  4  5  1  0  0  0
  5  6  2  0  0  0
  6  7  1  0  0  0
  7 29  1  0  0  0
 29 30  1  0  0  0
 30 31  1  0  0  0
 31 32  1  0  0  0
 32 33  1  0  0  0
 33 34  1  0  0  0
 34 35  1  0  0  0
 35 36  1  0  0  0
 36 37  1  0  0  0
 36 38  1  0  0  0
 38 39  1  0  0  0
  7  8  2  0  0  0
  8 25  1  0  0  0
 25 26  1  0  0  0
  8  9  1  0  0  0
  9 10  2  0  0  0
  2 27  1  0  0  0
 27 28  3  0  0  0
 15 16  2  0  0  0
 16 17  1  0  0  0
 17 21  1  0  0  0
 21 22  1  0  0  0
 17 18  2  0  0  0
 18 23  1  0  0  0
 23 24  1  0  0  0
 18 13  1  0  0  0
 10  1  1  0  0  0
 10  5  1  0  0  0
 39 33  1  0  0  0
 11 12  1  0  0  0
M  END
> <minimizedAffinity>
-7.17680

> <CNNscore>
0.5262739658

> <CNNaffinity>
7.3263373375

> <CNN_VS>
3.8556606770

> <CNNaffinity_variance>
0.0194998328

$$$$
[H]c1nc2c([H])c(OC([H])([H])C([H])([H])C([H])([H])N3C([H])([H])C([H])([H])N(C([H])([H])[H])C([H])([H])C3([H])[H])c(OC([H])([H])[H])c([H])c2c(N([H])c2c([H])c(OC([H])([H])[H])c(OC([H])([H])[H])c(OC([H])([H])[H])c2[H])c1C#N


 39 42  0  0  0  0  0  0  0  0999 V2000
   54.0165   -5.4599   -7.2718 C   0  0  0  0  0  0  0  0  0  0  0  0
   54.5458   -4.5512   -8.1815 C   0  0  0  0  0  0  0  0  0  0  0  0
   55.8917   -4.2599   -8.0842 C   0  0  0  0  0  0  0  0  0  0  0  0
   56.6613   -4.8425   -7.1346 N   0  0  0  0  0  0  0  0  0  0  0  0
   56.1425   -5.7266   -6.2510 C   0  0  0  0  0  0  0  0  0  0  0  0
   56.9374   -6.3238   -5.2785 C   0  0  0  0  0  0  0  0  0  0  0  0
   56.4199   -7.2270   -4.3748 C   0  0  0  0  0  0  0  0  0  0  0  0
   55.0666   -7.5442   -4.4438 C   0  0  0  0  0  0  0  0  0  0  0  0
   54.2729   -6.9568   -5.4039 C   0  0  0  0  0  0  0  0  0  0  0  0
   54.7965   -6.0558   -6.3032 C   0  0  0  0  0  0  0  0  0  0  0  0
   52.6202   -5.7730   -7.3623 N   0  0  0  0  0  0  0  0  0  0  0  0
   52.2894   -6.5305   -7.9913 H   0  0  0  0  0  0  0  0  0  0  0  0
   50.2131   -3.2173   -6.2597 C   0  0  0  0  0  0  0  0  0  0  0  0
   51.1331   -3.8787   -7.0410 C   0  0  0  0  0  0  0  0  0  0  0  0
   51.6738   -5.0596   -6.6010 C   0  0  0  0  0  0  0  0  0  0  0  0
   51.2751   -5.5504   -5.3797 C   0  0  0  0  0  0  0  0  0  0  0  0
   50.3567   -4.9133   -4.5727 C   0  0  0  0  0  0  0  0  0  0  0  0
   49.8181   -3.7154   -5.0361 C   0  0  0  0  0  0  0  0  0  0  0  0
   50.2016   -1.3489   -7.7622 C   0  0  0  0  0  0  0  0  0  0  0  0
   49.6294   -2.0139   -6.6546 O   0  0  0  0  0  0  0  0  0  0  0  0
   49.9467   -5.3968   -3.3393 O   0  0  0  0  0  0  0  0  0  0  0  0
   50.7692   -5.9740   -2.3702 C   0  0  0  0  0  0  0  0  0  0  0  0
   48.8936   -3.0610   -4.2400 O   0  0  0  0  0  0  0  0  0  0  0  0
   47.5157   -3.2208   -4.5381 C   0  0  0  0  0  0  0  0  0  0  0  0
   54.5843   -8.4580   -3.5170 O   0  0  0  0  0  0  0  0  0  0  0  0
   53.8693   -8.0122   -2.3878 C   0  0  0  0  0  0  0  0  0  0  0  0
   53.7218   -3.9325   -9.1921 C   0  0  0  0  0  0  0  0  0  0  0  0
   53.0650   -3.4417   -9.9942 N   0  0  0  0  0  0  0  0  0  0  0  0
   57.2678   -7.7817   -3.4352 O   0  0  0  0  0  0  0  0  0  0  0  0
   57.5995   -7.0913   -2.2639 C   0  0  0  0  0  0  0  0  0  0  0  0
   57.8001   -8.0055   -1.0603 C   0  0  0  0  0  0  0  0  0  0  0  0
   58.1286   -9.4073   -1.5027 C   0  0  0  0  0  0  0  0  0  0  0  0
   58.9913  -10.0167   -0.5058 N   0  0  0  0  0  0  0  0  0  0  0  0
   60.2971   -9.3310   -0.5012 C   0  0  0  0  0  0  0  0  0  0  0  0
   60.9897   -9.4557   -1.8102 C   0  0  0  0  0  0  0  0  0  0  0  0
   60.8996  -10.6901   -2.4865 N   0  0  0  0  0  0  0  0  0  0  0  0
   61.1251  -10.6094   -3.9091 C   0  0  0  0  0  0  0  0  0  0  0  0
   59.9262  -11.6321   -2.1011 C   0  0  0  0  0  0  0  0  0  0  0  0
   59.2236  -11.4244   -0.8106 C   0  0  0  0  0  0  0  0  0  0  0  0
 19 20  1  0  0  0
 20 13  1  0  0  0
 13 14  2  0  0  0
 14 15  1  0  0  0
 15 11  1  0  0  0
 11  1  1  0  0  0
  1  2  2  0  0  0
  2  3  1  0  0  0
  3  4  2  0  0  0
  4  5  1  0  0  0
  5  6  2  0  0  0
  6  7  1  0  0  0
  7 29  1  0  0  0
 29 30  1  0  0  0
 30 31  1  0  0  0
 31 32  1  0  0  0
 32 33  1  0  0  0
 33 34  1  0  0  0
 34 35  1  0  0  0
 35 36  1  0  0  0
 36 37  1  0  0  0
 36 38  1  0  0  0
 38 39  1  0  0  0
  7  8  2  0  0  0
  8 25  1  0  0  0
 25 26  1  0  0  0
  8  9  1  0  0  0
  9 10  2  0  0  0
  2 27  1  0  0  0
 27 28  3  0  0  0
 15 16  2  0  0  0
 16 17  1  0  0  0
 17 21  1  0  0  0
 21 22  1  0  0  0
 17 18  2  0  0  0
 18 23  1  0  0  0
 23 24  1  0  0  0
 18 13  1  0  0  0
 10  1  1  0  0  0
 10  5  1  0  0  0
 39 33  1  0  0  0
 11 12  1  0  0  0
M  END
> <minimizedAffinity>
-7.25398

> <CNNscore>
0.5125173330

> <CNNaffinity>
7.1223053932

> <CNN_VS>
3.6503050327

> <CNNaffinity_variance>
0.1356951892

$$$$
[H]c1nc2c([H])c(OC([H])([H])C([H])([H])C([H])([H])N3C([H])([H])C([H])([H])N(C([H])([H])[H])C([H])([H])C3([H])[H])c(OC([H])([H])[H])c([H])c2c(N([H])c2c([H])c(OC([H])([H])[H])c(OC([H])([H])[H])c(OC([H])([H])[H])c2[H])c1C#N


 39 42  0  0  0  0  0  0  0  0999 V2000
   53.9907   -5.3788   -7.2094 C   0  0  0  0  0  0  0  0  0  0  0  0
   54.4759   -4.4267   -8.0992 C   0  0  0  0  0  0  0  0  0  0  0  0
   55.8167   -4.1063   -8.0238 C   0  0  0  0  0  0  0  0  0  0  0  0
   56.6228   -4.7022   -7.1136 N   0  0  0  0  0  0  0  0  0  0  0  0
   56.1468   -5.6284   -6.2493 C   0  0  0  0  0  0  0  0  0  0  0  0
   56.9791   -6.2391   -5.3173 C   0  0  0  0  0  0  0  0  0  0  0  0
   56.5054   -7.1851   -4.4336 C   0  0  0  0  0  0  0  0  0  0  0  0
   55.1586   -7.5326   -4.4814 C   0  0  0  0  0  0  0  0  0  0  0  0
   54.3280   -6.9321   -5.4014 C   0  0  0  0  0  0  0  0  0  0  0  0
   54.8080   -5.9883   -6.2809 C   0  0  0  0  0  0  0  0  0  0  0  0
   52.6003   -5.7224   -7.2776 N   0  0  0  0  0  0  0  0  0  0  0  0
   52.2788   -6.5011   -7.8851 H   0  0  0  0  0  0  0  0  0  0  0  0
   50.1144   -3.2194   -6.2305 C   0  0  0  0  0  0  0  0  0  0  0  0
   51.0380   -3.8814   -7.0069 C   0  0  0  0  0  0  0  0  0  0  0  0
   51.6472   -5.0108   -6.5231 C   0  0  0  0  0  0  0  0  0  0  0  0
   51.3119   -5.4502   -5.2637 C   0  0  0  0  0  0  0  0  0  0  0  0
   50.3917   -4.8109   -4.4605 C   0  0  0  0  0  0  0  0  0  0  0  0
   49.7831   -3.6659   -4.9687 C   0  0  0  0  0  0  0  0  0  0  0  0
   50.0812   -1.3257   -7.7007 C   0  0  0  0  0  0  0  0  0  0  0  0
   49.4626   -2.0671   -6.6691 O   0  0  0  0  0  0  0  0  0  0  0  0
   50.0452   -5.2429   -3.1891 O   0  0  0  0  0  0  0  0  0  0  0  0
   50.7854   -6.1155   -2.3895 C   0  0  0  0  0  0  0  0  0  0  0  0
   48.8558   -3.0102   -4.1770 O   0  0  0  0  0  0  0  0  0  0  0  0
   47.4785   -3.1788   -4.4734 C   0  0  0  0  0  0  0  0  0  0  0  0
   54.7208   -8.4890   -3.5758 O   0  0  0  0  0  0  0  0  0  0  0  0
   53.9646   -8.1061   -2.4504 C   0  0  0  0  0  0  0  0  0  0  0  0
   53.6130   -3.7941   -9.0677 C   0  0  0  0  0  0  0  0  0  0  0  0
   52.9289   -3.2898   -9.8380 N   0  0  0  0  0  0  0  0  0  0  0  0
   57.3888   -7.7509   -3.5343 O   0  0  0  0  0  0  0  0  0  0  0  0
   58.7449   -7.8977   -3.8480 C   0  0  0  0  0  0  0  0  0  0  0  0
   59.6764   -7.3895   -2.7533 C   0  0  0  0  0  0  0  0  0  0  0  0
   59.1076   -6.1595   -2.0958 C   0  0  0  0  0  0  0  0  0  0  0  0
   59.3955   -6.2202   -0.6736 N   0  0  0  0  0  0  0  0  0  0  0  0
   58.5472   -7.2494   -0.0442 C   0  0  0  0  0  0  0  0  0  0  0  0
   57.1019   -6.9320   -0.1819 C   0  0  0  0  0  0  0  0  0  0  0  0
   56.7088   -5.5845   -0.0447 N   0  0  0  0  0  0  0  0  0  0  0  0
   55.4497   -5.2630   -0.6709 C   0  0  0  0  0  0  0  0  0  0  0  0
   57.6743   -4.5614   -0.1132 C   0  0  0  0  0  0  0  0  0  0  0  0
   59.1058   -4.9433   -0.0300 C   0  0  0  0  0  0  0  0  0  0  0  0
 19 20  1  0  0  0
 20 13  1  0  0  0
 13 14  2  0  0  0
 14 15  1  0  0  0
 15 11  1  0  0  0
 11  1  1  0  0  0
  1  2  2  0  0  0
  2  3  1  0  0  0
  3  4  2  0  0  0
  4  5  1  0  0  0
  5  6  2  0  0  0
  6  7  1  0  0  0
  7 29  1  0  0  0
 29 30  1  0  0  0
 30 31  1  0  0  0
 31 32  1  0  0  0
 32 33  1  0  0  0
 33 34  1  0  0  0
 34 35  1  0  0  0
 35 36  1  0  0  0
 36 37  1  0  0  0
 36 38  1  0  0  0
 38 39  1  0  0  0
  7  8  2  0  0  0
  8 25  1  0  0  0
 25 26  1  0  0  0
  8  9  1  0  0  0
  9 10  2  0  0  0
  2 27  1  0  0  0
 27 28  3  0  0  0
 15 16  2  0  0  0
 16 17  1  0  0  0
 17 21  1  0  0  0
 21 22  1  0  0  0
 17 18  2  0  0  0
 18 23  1  0  0  0
 23 24  1  0  0  0
 18 13  1  0  0  0
 10  1  1  0  0  0
 10  5  1  0  0  0
 39 33  1  0  0  0
 11 12  1  0  0  0
M  END
> <minimizedAffinity>
-7.62031

> <CNNscore>
0.5108182430

> <CNNaffinity>
7.3033919334

> <CNN_VS>
3.7307057381

> <CNNaffinity_variance>
0.2578518987

$$$$
[H]c1nc2c([H])c(OC([H])([H])C([H])([H])C([H])([H])N3C([H])([H])C([H])([H])N(C([H])([H])[H])C([H])([H])C3([H])[H])c(OC([H])([H])[H])c([H])c2c(N([H])c2c([H])c(OC([H])([H])[H])c(OC([H])([H])[H])c(OC([H])([H])[H])c2[H])c1C#N


 39 42  0  0  0  0  0  0  0  0999 V2000
   53.4885   -5.1578   -7.1255 C   0  0  0  0  0  0  0  0  0  0  0  0
   52.2689   -4.5125   -6.9528 C   0  0  0  0  0  0  0  0  0  0  0  0
   51.9896   -3.4423   -7.7788 C   0  0  0  0  0  0  0  0  0  0  0  0
   52.8766   -3.0420   -8.7205 N   0  0  0  0  0  0  0  0  0  0  0  0
   54.0625   -3.6727   -8.8856 C   0  0  0  0  0  0  0  0  0  0  0  0
   54.9695   -3.2591   -9.8554 C   0  0  0  0  0  0  0  0  0  0  0  0
   56.1793   -3.8952  -10.0335 C   0  0  0  0  0  0  0  0  0  0  0  0
   56.4940   -4.9784   -9.2181 C   0  0  0  0  0  0  0  0  0  0  0  0
   55.6011   -5.3937   -8.2554 C   0  0  0  0  0  0  0  0  0  0  0  0
   54.3947   -4.7538   -8.0832 C   0  0  0  0  0  0  0  0  0  0  0  0
   53.7911   -6.2721   -6.2754 N   0  0  0  0  0  0  0  0  0  0  0  0
   53.4501   -7.2241   -6.5126 H   0  0  0  0  0  0  0  0  0  0  0  0
   54.7786   -5.5119   -2.8130 C   0  0  0  0  0  0  0  0  0  0  0  0
   53.9899   -5.6716   -3.9295 C   0  0  0  0  0  0  0  0  0  0  0  0
   54.5548   -6.0955   -5.1050 C   0  0  0  0  0  0  0  0  0  0  0  0
   55.9061   -6.3500   -5.1307 C   0  0  0  0  0  0  0  0  0  0  0  0
   56.7242   -6.2001   -4.0312 C   0  0  0  0  0  0  0  0  0  0  0  0
   56.1329   -5.7691   -2.8461 C   0  0  0  0  0  0  0  0  0  0  0  0
   52.8565   -4.9629   -1.4890 C   0  0  0  0  0  0  0  0  0  0  0  0
   54.2606   -5.0845   -1.5907 O   0  0  0  0  0  0  0  0  0  0  0  0
   58.0877   -6.4525   -4.0438 O   0  0  0  0  0  0  0  0  0  0  0  0
   58.6907   -7.7059   -3.9246 C   0  0  0  0  0  0  0  0  0  0  0  0
   56.9381   -5.6130   -1.7308 O   0  0  0  0  0  0  0  0  0  0  0  0
   57.6659   -4.4032   -1.5899 C   0  0  0  0  0  0  0  0  0  0  0  0
   57.7209   -5.5921   -9.4293 O   0  0  0  0  0  0  0  0  0  0  0  0
   58.7891   -5.3665   -8.5386 C   0  0  0  0  0  0  0  0  0  0  0  0
   51.3266   -4.9425   -5.9478 C   0  0  0  0  0  0  0  0  0  0  0  0
   50.5761   -5.2827   -5.1498 N   0  0  0  0  0  0  0  0  0  0  0  0
   57.0323   -3.4307  -11.0164 O   0  0  0  0  0  0  0  0  0  0  0  0
   57.2847   -4.1830  -12.1692 C   0  0  0  0  0  0  0  0  0  0  0  0
   56.3234   -3.8772  -13.3124 C   0  0  0  0  0  0  0  0  0  0  0  0
   57.0773   -3.6216  -14.5910 C   0  0  0  0  0  0  0  0  0  0  0  0
   56.3137   -4.1733  -15.6964 N   0  0  0  0  0  0  0  0  0  0  0  0
   57.2113   -4.9438  -16.5772 C   0  0  0  0  0  0  0  0  0  0  0  0
   58.2731   -4.0874  -17.1670 C   0  0  0  0  0  0  0  0  0  0  0  0
   57.9171   -2.7841  -17.5718 N   0  0  0  0  0  0  0  0  0  0  0  0
   59.0216   -1.8590  -17.6451 C   0  0  0  0  0  0  0  0  0  0  0  0
   56.7075   -2.2167  -17.1265 C   0  0  0  0  0  0  0  0  0  0  0  0
   55.7077   -3.1102  -16.4908 C   0  0  0  0  0  0  0  0  0  0  0  0
 19 20  1  0  0  0
 20 13  1  0  0  0
 13 14  2  0  0  0
 14 15  1  0  0  0
 15 11  1  0  0  0
 11  1  1  0  0  0
  1  2  2  0  0  0
  2  3  1  0  0  0
  3  4  2  0  0  0
  4  5  1  0  0  0
  5  6  2  0  0  0
  6  7  1  0  0  0
  7 29  1  0  0  0
 29 30  1  0  0  0
 30 31  1  0  0  0
 31 32  1  0  0  0
 32 33  1  0  0  0
 33 34  1  0  0  0
 34 35  1  0  0  0
 35 36  1  0  0  0
 36 37  1  0  0  0
 36 38  1  0  0  0
 38 39  1  0  0  0
  7  8  2  0  0  0
  8 25  1  0  0  0
 25 26  1  0  0  0
  8  9  1  0  0  0
  9 10  2  0  0  0
  2 27  1  0  0  0
 27 28  3  0  0  0
 15 16  2  0  0  0
 16 17  1  0  0  0
 17 21  1  0  0  0
 21 22  1  0  0  0
 17 18  2  0  0  0
 18 23  1  0  0  0
 23 24  1  0  0  0
 18 13  1  0  0  0
 10  1  1  0  0  0
 10  5  1  0  0  0
 39 33  1  0  0  0
 11 12  1  0  0  0
M  END
> <minimizedAffinity>
-7.06243

> <CNNscore>
0.4891806245

> <CNNaffinity>
7.1990957260

> <CNN_VS>
3.5216581821

> <CNNaffinity_variance>
0.0562498458

$$$$
[H]c1nc2c([H])c(OC([H])([H])C([H])([H])C([H])([H])N3C([H])([H])C([H])([H])N(C([H])([H])[H])C([H])([H])C3([H])[H])c(OC([H])([H])[H])c([H])c2c(N([H])c2c([H])c(OC([H])([H])[H])c(OC([H])([H])[H])c(OC([H])([H])[H])c2[H])c1C#N


 39 42  0  0  0  0  0  0  0  0999 V2000
   53.9879   -5.4735   -7.1427 C   0  0  0  0  0  0  0  0  0  0  0  0
   54.4513   -4.5262   -8.0491 C   0  0  0  0  0  0  0  0  0  0  0  0
   55.7873   -4.1835   -7.9882 C   0  0  0  0  0  0  0  0  0  0  0  0
   56.6095   -4.7539   -7.0760 N   0  0  0  0  0  0  0  0  0  0  0  0
   56.1547   -5.6755   -6.1955 C   0  0  0  0  0  0  0  0  0  0  0  0
   57.0034   -6.2599   -5.2615 C   0  0  0  0  0  0  0  0  0  0  0  0
   56.5513   -7.2010   -4.3614 C   0  0  0  0  0  0  0  0  0  0  0  0
   55.2099   -7.5705   -4.3943 C   0  0  0  0  0  0  0  0  0  0  0  0
   54.3632   -6.9961   -5.3161 C   0  0  0  0  0  0  0  0  0  0  0  0
   54.8216   -6.0571   -6.2121 C   0  0  0  0  0  0  0  0  0  0  0  0
   52.6027   -5.8401   -7.1957 N   0  0  0  0  0  0  0  0  0  0  0  0
   52.2812   -6.5954   -7.8321 H   0  0  0  0  0  0  0  0  0  0  0  0
   50.3250   -5.0160   -4.4255 C   0  0  0  0  0  0  0  0  0  0  0  0
   51.2560   -5.6943   -5.1787 C   0  0  0  0  0  0  0  0  0  0  0  0
   51.6549   -5.1830   -6.3871 C   0  0  0  0  0  0  0  0  0  0  0  0
   51.1056   -3.9959   -6.8121 C   0  0  0  0  0  0  0  0  0  0  0  0
   50.1713   -3.2918   -6.0827 C   0  0  0  0  0  0  0  0  0  0  0  0
   49.7785   -3.8262   -4.8580 C   0  0  0  0  0  0  0  0  0  0  0  0
   50.8392   -6.0938   -2.3464 C   0  0  0  0  0  0  0  0  0  0  0  0
   49.8819   -5.4863   -3.1896 O   0  0  0  0  0  0  0  0  0  0  0  0
   49.6093   -2.0946   -6.4999 O   0  0  0  0  0  0  0  0  0  0  0  0
   50.0340   -1.3226   -7.5826 C   0  0  0  0  0  0  0  0  0  0  0  0
   48.8415   -3.1332   -4.1107 O   0  0  0  0  0  0  0  0  0  0  0  0
   47.4774   -3.5049   -4.2294 C   0  0  0  0  0  0  0  0  0  0  0  0
   54.7941   -8.5212   -3.4724 O   0  0  0  0  0  0  0  0  0  0  0  0
   54.0234   -8.1376   -2.3571 C   0  0  0  0  0  0  0  0  0  0  0  0
   53.5714   -3.9209   -9.0197 C   0  0  0  0  0  0  0  0  0  0  0  0
   52.8716   -3.4418   -9.7920 N   0  0  0  0  0  0  0  0  0  0  0  0
   57.4503   -7.7402   -3.4611 O   0  0  0  0  0  0  0  0  0  0  0  0
   58.7965   -7.9159   -3.8009 C   0  0  0  0  0  0  0  0  0  0  0  0
   59.7594   -7.4459   -2.7163 C   0  0  0  0  0  0  0  0  0  0  0  0
   59.2877   -6.1518   -2.1069 C   0  0  0  0  0  0  0  0  0  0  0  0
   59.5707   -6.1810   -0.6826 N   0  0  0  0  0  0  0  0  0  0  0  0
   58.7263   -7.2021   -0.0350 C   0  0  0  0  0  0  0  0  0  0  0  0
   57.2796   -6.8965   -0.1845 C   0  0  0  0  0  0  0  0  0  0  0  0
   56.8779   -5.5489   -0.0768 N   0  0  0  0  0  0  0  0  0  0  0  0
   55.6191   -5.2483   -0.7141 C   0  0  0  0  0  0  0  0  0  0  0  0
   57.8373   -4.5215   -0.1632 C   0  0  0  0  0  0  0  0  0  0  0  0
   59.2708   -4.8928   -0.0669 C   0  0  0  0  0  0  0  0  0  0  0  0
 19 20  1  0  0  0
 20 13  1  0  0  0
 13 14  2  0  0  0
 14 15  1  0  0  0
 15 11  1  0  0  0
 11  1  1  0  0  0
  1  2  2  0  0  0
  2  3  1  0  0  0
  3  4  2  0  0  0
  4  5  1  0  0  0
  5  6  2  0  0  0
  6  7  1  0  0  0
  7 29  1  0  0  0
 29 30  1  0  0  0
 30 31  1  0  0  0
 31 32  1  0  0  0
 32 33  1  0  0  0
 33 34  1  0  0  0
 34 35  1  0  0  0
 35 36  1  0  0  0
 36 37  1  0  0  0
 36 38  1  0  0  0
 38 39  1  0  0  0
  7  8  2  0  0  0
  8 25  1  0  0  0
 25 26  1  0  0  0
  8  9  1  0  0  0
  9 10  2  0  0  0
  2 27  1  0  0  0
 27 28  3  0  0  0
 15 16  2  0  0  0
 16 17  1  0  0  0
 17 21  1  0  0  0
 21 22  1  0  0  0
 17 18  2  0  0  0
 18 23  1  0  0  0
 23 24  1  0  0  0
 18 13  1  0  0  0
 10  1  1  0  0  0
 10  5  1  0  0  0
 39 33  1  0  0  0
 11 12  1  0  0  0
M  END
> <minimizedAffinity>
-7.47412

> <CNNscore>
0.4596379101

> <CNNaffinity>
7.2538976669

> <CNN_VS>
3.3341662884

> <CNNaffinity_variance>
0.2217983902

$$$$
[H]c1nc2c([H])c(OC([H])([H])C([H])([H])C([H])([H])N3C([H])([H])C([H])([H])N(C([H])([H])[H])C([H])([H])C3([H])[H])c(OC([H])([H])[H])c([H])c2c(N([H])c2c([H])c(OC([H])([H])[H])c(OC([H])([H])[H])c(OC([H])([H])[H])c2[H])c1C#N


 39 42  0  0  0  0  0  0  0  0999 V2000
   61.9948   -8.5448   -7.7193 C   0  0  0  0  0  0  0  0  0  0  0  0
   61.1648   -7.6231   -7.0908 C   0  0  0  0  0  0  0  0  0  0  0  0
   60.8715   -6.4587   -7.7720 C   0  0  0  0  0  0  0  0  0  0  0  0
   61.3777   -6.2304   -9.0070 N   0  0  0  0  0  0  0  0  0  0  0  0
   62.1851   -7.1300   -9.6155 C   0  0  0  0  0  0  0  0  0  0  0  0
   62.7012   -6.8919  -10.8848 C   0  0  0  0  0  0  0  0  0  0  0  0
   63.5229   -7.8020  -11.5147 C   0  0  0  0  0  0  0  0  0  0  0  0
   63.8396   -8.9871  -10.8572 C   0  0  0  0  0  0  0  0  0  0  0  0
   63.3326   -9.2299   -9.5999 C   0  0  0  0  0  0  0  0  0  0  0  0
   62.5125   -8.3166   -8.9770 C   0  0  0  0  0  0  0  0  0  0  0  0
   62.3065   -9.7594   -7.0240 N   0  0  0  0  0  0  0  0  0  0  0  0
   62.1343  -10.6814   -7.4702 H   0  0  0  0  0  0  0  0  0  0  0  0
   64.4414   -8.9554   -4.1366 C   0  0  0  0  0  0  0  0  0  0  0  0
   63.9450   -8.9553   -5.4203 C   0  0  0  0  0  0  0  0  0  0  0  0
   62.8508   -9.7236   -5.7254 C   0  0  0  0  0  0  0  0  0  0  0  0
   62.2785  -10.4779   -4.7278 C   0  0  0  0  0  0  0  0  0  0  0  0
   62.7507  -10.5009   -3.4328 C   0  0  0  0  0  0  0  0  0  0  0  0
   63.8625   -9.7142   -3.1415 C   0  0  0  0  0  0  0  0  0  0  0  0
   65.6410   -6.8852   -4.2909 C   0  0  0  0  0  0  0  0  0  0  0  0
   65.5503   -8.1944   -3.7674 O   0  0  0  0  0  0  0  0  0  0  0  0
   62.1836  -11.2572   -2.4181 O   0  0  0  0  0  0  0  0  0  0  0  0
   60.8387  -11.2506   -2.0440 C   0  0  0  0  0  0  0  0  0  0  0  0
   64.3510   -9.7238   -1.8462 O   0  0  0  0  0  0  0  0  0  0  0  0
   65.2322  -10.7690   -1.4668 C   0  0  0  0  0  0  0  0  0  0  0  0
   64.6689   -9.8775  -11.5250 O   0  0  0  0  0  0  0  0  0  0  0  0
   65.6010  -10.6527  -10.8072 C   0  0  0  0  0  0  0  0  0  0  0  0
   60.6275   -7.8705   -5.7744 C   0  0  0  0  0  0  0  0  0  0  0  0
   60.1987   -8.0684   -4.7291 N   0  0  0  0  0  0  0  0  0  0  0  0
   63.9998   -7.5000  -12.7759 O   0  0  0  0  0  0  0  0  0  0  0  0
   63.2137   -6.7985  -13.6972 C   0  0  0  0  0  0  0  0  0  0  0  0
   63.9819   -5.7138  -14.4441 C   0  0  0  0  0  0  0  0  0  0  0  0
   63.0569   -4.9116  -15.3215 C   0  0  0  0  0  0  0  0  0  0  0  0
   63.0982   -5.4641  -16.6641 N   0  0  0  0  0  0  0  0  0  0  0  0
   63.5937   -4.4392  -17.6018 C   0  0  0  0  0  0  0  0  0  0  0  0
   62.6979   -3.2542  -17.6467 C   0  0  0  0  0  0  0  0  0  0  0  0
   61.3066   -3.4796  -17.5969 N   0  0  0  0  0  0  0  0  0  0  0  0
   60.5349   -2.3509  -17.1371 C   0  0  0  0  0  0  0  0  0  0  0  0
   60.8130   -4.7326  -17.1847 C   0  0  0  0  0  0  0  0  0  0  0  0
   61.7659   -5.8671  -17.1011 C   0  0  0  0  0  0  0  0  0  0  0  0
 19 20  1  0  0  0
 20 13  1  0  0  0
 13 14  2  0  0  0
 14 15  1  0  0  0
 15 11  1  0  0  0
 11  1  1  0  0  0
  1  2  2  0  0  0
  2  3  1  0  0  0
  3  4  2  0  0  0
  4  5  1  0  0  0
  5  6  2  0  0  0
  6  7  1  0  0  0
  7 29  1  0  0  0
 29 30  1  0  0  0
 30 31  1  0  0  0
 31 32  1  0  0  0
 32 33  1  0  0  0
 33 34  1  0  0  0
 34 35  1  0  0  0
 35 36  1  0  0  0
 36 37  1  0  0  0
 36 38  1  0  0  0
 38 39  1  0  0  0
  7  8  2  0  0  0
  8 25  1  0  0  0
 25 26  1  0  0  0
  8  9  1  0  0  0
  9 10  2  0  0  0
  2 27  1  0  0  0
 27 28  3  0  0  0
 15 16  2  0  0  0
 16 17  1  0  0  0
 17 21  1  0  0  0
 21 22  1  0  0  0
 17 18  2  0  0  0
 18 23  1  0  0  0
 23 24  1  0  0  0
 18 13  1  0  0  0
 10  1  1  0  0  0
 10  5  1  0  0  0
 39 33  1  0  0  0
 11 12  1  0  0  0
M  END
> <minimizedAffinity>
-1.26620

> <CNNscore>
0.4493676722

> <CNNaffinity>
5.7451620102

> <CNN_VS>
2.5816900730

> <CNNaffinity_variance>
1.0775387287

$$$$
[H]c1nc(Oc2c([H])c([H])c(N([H])C(=O)N([H])c3c([H])c([H])c(C([H])([H])N4C([H])([H])C([H])([H])N(C([H])([H])C([H])([H])[H])C([H])([H])C4([H])[H])c(C(F)(F)F)c3[H])c([H])c2[H])c([H])c(N([H])C([H])([H])[H])n1


 41 44  0  0  0  0  0  0  0  0999 V2000
   60.4644   -6.4223   -8.7012 N   0  0  0  0  0  0  0  0  0  0  0  0
   59.1871   -6.0060   -9.1571 C   0  0  0  0  0  0  0  0  0  0  0  0
   58.6783   -6.4104  -10.2216 O   0  0  0  0  0  0  0  0  0  0  0  0
   58.4559   -5.0866   -8.3644 N   0  0  0  0  0  0  0  0  0  0  0  0
   60.8110   -6.0224   -7.7872 H   0  0  0  0  0  0  0  0  0  0  0  0
   58.9029   -4.7600   -7.4595 H   0  0  0  0  0  0  0  0  0  0  0  0
   62.9227   -8.9230  -11.0323 C   0  0  0  0  0  0  0  0  0  0  0  0
   62.2706   -9.4650   -9.9668 C   0  0  0  0  0  0  0  0  0  0  0  0
   61.4503   -8.6547   -9.1637 C   0  0  0  0  0  0  0  0  0  0  0  0
   61.2651   -7.3277   -9.3967 C   0  0  0  0  0  0  0  0  0  0  0  0
   61.9552   -6.8148  -10.5025 C   0  0  0  0  0  0  0  0  0  0  0  0
   62.7666   -7.5595  -11.3162 C   0  0  0  0  0  0  0  0  0  0  0  0
   63.4585   -6.9314  -12.4607 C   0  0  0  0  0  0  0  0  0  0  0  0
   63.1499   -5.5613  -12.4528 F   0  0  0  0  0  0  0  0  0  0  0  0
   63.0542   -7.3757  -13.6869 F   0  0  0  0  0  0  0  0  0  0  0  0
   64.8522   -6.9308  -12.3117 F   0  0  0  0  0  0  0  0  0  0  0  0
   63.7550   -9.7572  -11.8901 C   0  0  0  0  0  0  0  0  0  0  0  0
   65.3990  -13.1928  -12.8216 N   0  0  0  0  0  0  0  0  0  0  0  0
   66.1005  -12.2229  -12.0437 C   0  0  0  0  0  0  0  0  0  0  0  0
   65.2484  -11.4754  -11.0471 C   0  0  0  0  0  0  0  0  0  0  0  0
   63.9621  -11.1065  -11.5230 N   0  0  0  0  0  0  0  0  0  0  0  0
   63.3742  -11.9822  -12.4948 C   0  0  0  0  0  0  0  0  0  0  0  0
   64.0243  -13.3469  -12.4286 C   0  0  0  0  0  0  0  0  0  0  0  0
   66.6368  -11.8317  -14.4526 C   0  0  0  0  0  0  0  0  0  0  0  0
   65.5387  -12.8367  -14.2202 C   0  0  0  0  0  0  0  0  0  0  0  0
   57.1919   -4.5945   -8.7174 C   0  0  0  0  0  0  0  0  0  0  0  0
   56.4521   -4.0066   -7.6853 C   0  0  0  0  0  0  0  0  0  0  0  0
   55.2211   -3.4786   -7.9606 C   0  0  0  0  0  0  0  0  0  0  0  0
   54.6439   -3.4852   -9.2147 C   0  0  0  0  0  0  0  0  0  0  0  0
   55.3758   -4.0623  -10.2181 C   0  0  0  0  0  0  0  0  0  0  0  0
   56.6371   -4.6083   -9.9602 C   0  0  0  0  0  0  0  0  0  0  0  0
   53.3729   -2.9305   -9.4554 O   0  0  0  0  0  0  0  0  0  0  0  0
   52.4237   -3.1126   -8.4468 C   0  0  0  0  0  0  0  0  0  0  0  0
   52.4401   -4.2287   -7.6381 C   0  0  0  0  0  0  0  0  0  0  0  0
   51.4683   -4.3611   -6.6452 C   0  0  0  0  0  0  0  0  0  0  0  0
   50.5606   -3.3824   -6.5317 N   0  0  0  0  0  0  0  0  0  0  0  0
   50.5371   -2.2923   -7.3148 C   0  0  0  0  0  0  0  0  0  0  0  0
   51.4766   -2.1768   -8.2654 N   0  0  0  0  0  0  0  0  0  0  0  0
   51.4409   -5.4863   -5.7893 N   0  0  0  0  0  0  0  0  0  0  0  0
   52.6756   -5.9602   -5.2140 C   0  0  0  0  0  0  0  0  0  0  0  0
   50.5459   -5.9703   -5.5734 H   0  0  0  0  0  0  0  0  0  0  0  0
 24 25  1  0  0  0
 25 18  1  0  0  0
 18 19  1  0  0  0
 19 20  1  0  0  0
 20 21  1  0  0  0
 21 17  1  0  0  0
 17  7  1  0  0  0
  7  8  2  0  0  0
  8  9  1  0  0  0
  9 10  2  0  0  0
 10  1  1  0  0  0
  1  2  1  0  0  0
  2  3  2  0  0  0
  2  4  1  0  0  0
  4 26  1  0  0  0
 26 27  2  0  0  0
 27 28  1  0  0  0
 28 29  2  0  0  0
 29 32  1  0  0  0
 32 33  1  0  0  0
 33 34  2  0  0  0
 34 35  1  0  0  0
 35 39  1  0  0  0
 39 40  1  0  0  0
 35 36  2  0  0  0
 36 37  1  0  0  0
 37 38  2  0  0  0
 29 30  1  0  0  0
 30 31  2  0  0  0
 10 11  1  0  0  0
 11 12  2  0  0  0
 12 13  1  0  0  0
 13 14  1  0  0  0
 13 15  1  0  0  0
 13 16  1  0  0  0
 21 22  1  0  0  0
 22 23  1  0  0  0
 23 18  1  0  0  0
 12  7  1  0  0  0
 31 26  1  0  0  0
 38 33  1  0  0  0
  1  5  1  0  0  0
  4  6  1  0  0  0
 39 41  1  0  0  0
M  END
> <minimizedAffinity>
-7.86550

> <CNNscore>
0.4269921184

> <CNNaffinity>
6.0341215134

> <CNN_VS>
2.5765223503

> <CNNaffinity_variance>
0.0894680619

$$$$
[H]c1nc(Oc2c([H])c([H])c(N([H])C(=O)N([H])c3c([H])c([H])c(C([H])([H])N4C([H])([H])C([H])([H])N(C([H])([H])C([H])([H])[H])C([H])([H])C4([H])[H])c(C(F)(F)F)c3[H])c([H])c2[H])c([H])c(N([H])C([H])([H])[H])n1


 41 44  0  0  0  0  0  0  0  0999 V2000
   60.4017   -6.3956   -8.7418 N   0  0  0  0  0  0  0  0  0  0  0  0
   59.1215   -5.9927   -9.2012 C   0  0  0  0  0  0  0  0  0  0  0  0
   58.6144   -6.4124  -10.2607 O   0  0  0  0  0  0  0  0  0  0  0  0
   58.3849   -5.0692   -8.4183 N   0  0  0  0  0  0  0  0  0  0  0  0
   60.7465   -5.9832   -7.8327 H   0  0  0  0  0  0  0  0  0  0  0  0
   58.8304   -4.7295   -7.5175 H   0  0  0  0  0  0  0  0  0  0  0  0
   62.9075   -8.8935  -11.0248 C   0  0  0  0  0  0  0  0  0  0  0  0
   62.1413   -9.4585  -10.0512 C   0  0  0  0  0  0  0  0  0  0  0  0
   61.3017   -8.6505   -9.2658 C   0  0  0  0  0  0  0  0  0  0  0  0
   61.2078   -7.3035   -9.4277 C   0  0  0  0  0  0  0  0  0  0  0  0
   62.0135   -6.7674  -10.4403 C   0  0  0  0  0  0  0  0  0  0  0  0
   62.8486   -7.5088  -11.2328 C   0  0  0  0  0  0  0  0  0  0  0  0
   63.6655   -6.8558  -12.2765 C   0  0  0  0  0  0  0  0  0  0  0  0
   63.1918   -5.5433  -12.4372 F   0  0  0  0  0  0  0  0  0  0  0  0
   63.5664   -7.4195  -13.5161 F   0  0  0  0  0  0  0  0  0  0  0  0
   64.9923   -6.6535  -11.8722 F   0  0  0  0  0  0  0  0  0  0  0  0
   63.7621   -9.7228  -11.8652 C   0  0  0  0  0  0  0  0  0  0  0  0
   65.4568  -11.1889   -8.6478 N   0  0  0  0  0  0  0  0  0  0  0  0
   64.7415  -12.0271   -9.5554 C   0  0  0  0  0  0  0  0  0  0  0  0
   64.9206  -11.6785  -11.0129 C   0  0  0  0  0  0  0  0  0  0  0  0
   64.9263  -10.2865  -11.2950 N   0  0  0  0  0  0  0  0  0  0  0  0
   65.4349   -9.4351  -10.2589 C   0  0  0  0  0  0  0  0  0  0  0  0
   66.3020  -10.2311   -9.3081 C   0  0  0  0  0  0  0  0  0  0  0  0
   65.1494   -9.9320   -6.5572 C   0  0  0  0  0  0  0  0  0  0  0  0
   64.4969  -10.5617   -7.7603 C   0  0  0  0  0  0  0  0  0  0  0  0
   57.1174   -4.5893   -8.7757 C   0  0  0  0  0  0  0  0  0  0  0  0
   56.3578   -4.0324   -7.7408 C   0  0  0  0  0  0  0  0  0  0  0  0
   55.1220   -3.5176   -8.0195 C   0  0  0  0  0  0  0  0  0  0  0  0
   54.5585   -3.5087   -9.2797 C   0  0  0  0  0  0  0  0  0  0  0  0
   55.3096   -4.0555  -10.2858 C   0  0  0  0  0  0  0  0  0  0  0  0
   56.5762   -4.5875  -10.0245 C   0  0  0  0  0  0  0  0  0  0  0  0
   53.2818   -2.9685   -9.5237 O   0  0  0  0  0  0  0  0  0  0  0  0
   52.3566   -3.0885   -8.4841 C   0  0  0  0  0  0  0  0  0  0  0  0
   52.3623   -4.1781   -7.6397 C   0  0  0  0  0  0  0  0  0  0  0  0
   51.4155   -4.2483   -6.6169 C   0  0  0  0  0  0  0  0  0  0  0  0
   50.5413   -3.2387   -6.5108 N   0  0  0  0  0  0  0  0  0  0  0  0
   50.5285   -2.1741   -7.3286 C   0  0  0  0  0  0  0  0  0  0  0  0
   51.4437   -2.1184   -8.3078 N   0  0  0  0  0  0  0  0  0  0  0  0
   51.3784   -5.3439   -5.7239 N   0  0  0  0  0  0  0  0  0  0  0  0
   50.3928   -5.3577   -4.6711 C   0  0  0  0  0  0  0  0  0  0  0  0
   52.0500   -6.1326   -5.8193 H   0  0  0  0  0  0  0  0  0  0  0  0
 24 25  1  0  0  0
 25 18  1  0  0  0
 18 19  1  0  0  0
 19 20  1  0  0  0
 20 21  1  0  0  0
 21 17  1  0  0  0
 17  7  1  0  0  0
  7  8  2  0  0  0
  8  9  1  0  0  0
  9 10  2  0  0  0
 10  1  1  0  0  0
  1  2  1  0  0  0
  2  3  2  0  0  0
  2  4  1  0  0  0
  4 26  1  0  0  0
 26 27  2  0  0  0
 27 28  1  0  0  0
 28 29  2  0  0  0
 29 32  1  0  0  0
 32 33  1  0  0  0
 33 34  2  0  0  0
 34 35  1  0  0  0
 35 39  1  0  0  0
 39 40  1  0  0  0
 35 36  2  0  0  0
 36 37  1  0  0  0
 37 38  2  0  0  0
 29 30  1  0  0  0
 30 31  2  0  0  0
 10 11  1  0  0  0
 11 12  2  0  0  0
 12 13  1  0  0  0
 13 14  1  0  0  0
 13 15  1  0  0  0
 13 16  1  0  0  0
 21 22  1  0  0  0
 22 23  1  0  0  0
 23 18  1  0  0  0
 12  7  1  0  0  0
 31 26  1  0  0  0
 38 33  1  0  0  0
  1  5  1  0  0  0
  4  6  1  0  0  0
 39 41  1  0  0  0
M  END
> <minimizedAffinity>
-7.76769

> <CNNscore>
0.4178614020

> <CNNaffinity>
6.1810803413

> <CNN_VS>
2.5828349590

> <CNNaffinity_variance>
0.1191017181

$$$$
[H]c1nc(Oc2c([H])c([H])c(N([H])C(=O)N([H])c3c([H])c([H])c(C([H])([H])N4C([H])([H])C([H])([H])N(C([H])([H])C([H])([H])[H])C([H])([H])C4([H])[H])c(C(F)(F)F)c3[H])c([H])c2[H])c([H])c(N([H])C([H])([H])[H])n1


 41 44  0  0  0  0  0  0  0  0999 V2000
   56.1097   -3.4600  -10.7970 N   0  0  0  0  0  0  0  0  0  0  0  0
   56.6780   -3.9170  -12.0138 C   0  0  0  0  0  0  0  0  0  0  0  0
   57.2532   -5.0181  -12.1261 O   0  0  0  0  0  0  0  0  0  0  0  0
   56.5874   -3.0818  -13.1550 N   0  0  0  0  0  0  0  0  0  0  0  0
   55.6447   -2.5117  -10.8009 H   0  0  0  0  0  0  0  0  0  0  0  0
   56.0884   -2.1526  -13.0406 H   0  0  0  0  0  0  0  0  0  0  0  0
   55.8639   -5.6306   -7.1972 C   0  0  0  0  0  0  0  0  0  0  0  0
   57.0932   -5.4142   -7.7415 C   0  0  0  0  0  0  0  0  0  0  0  0
   57.2079   -4.7015   -8.9471 C   0  0  0  0  0  0  0  0  0  0  0  0
   56.1346   -4.2023   -9.6168 C   0  0  0  0  0  0  0  0  0  0  0  0
   54.8919   -4.4492   -9.0194 C   0  0  0  0  0  0  0  0  0  0  0  0
   54.7246   -5.1377   -7.8476 C   0  0  0  0  0  0  0  0  0  0  0  0
   53.3724   -5.3530   -7.2924 C   0  0  0  0  0  0  0  0  0  0  0  0
   52.4638   -4.6183   -8.0716 F   0  0  0  0  0  0  0  0  0  0  0  0
   53.1971   -4.8917   -6.0194 F   0  0  0  0  0  0  0  0  0  0  0  0
   52.9248   -6.6703   -7.4632 F   0  0  0  0  0  0  0  0  0  0  0  0
   55.7321   -6.3443   -5.9331 C   0  0  0  0  0  0  0  0  0  0  0  0
   56.2031   -6.2535   -2.0417 N   0  0  0  0  0  0  0  0  0  0  0  0
   56.6767   -7.3529   -2.8194 C   0  0  0  0  0  0  0  0  0  0  0  0
   57.2631   -6.9744   -4.1577 C   0  0  0  0  0  0  0  0  0  0  0  0
   56.5549   -5.9570   -4.8509 N   0  0  0  0  0  0  0  0  0  0  0  0
   55.8803   -4.9899   -4.0345 C   0  0  0  0  0  0  0  0  0  0  0  0
   56.4748   -4.9759   -2.6431 C   0  0  0  0  0  0  0  0  0  0  0  0
   54.3377   -7.8530   -2.1252 C   0  0  0  0  0  0  0  0  0  0  0  0
   54.7902   -6.4564   -1.7865 C   0  0  0  0  0  0  0  0  0  0  0  0
   57.1212   -3.4199  -14.4061 C   0  0  0  0  0  0  0  0  0  0  0  0
   56.2498   -4.0642  -15.2913 C   0  0  0  0  0  0  0  0  0  0  0  0
   56.6919   -4.3992  -16.5412 C   0  0  0  0  0  0  0  0  0  0  0  0
   57.9675   -4.1402  -17.0012 C   0  0  0  0  0  0  0  0  0  0  0  0
   58.8127   -3.5091  -16.1279 C   0  0  0  0  0  0  0  0  0  0  0  0
   58.3824   -3.1566  -14.8448 C   0  0  0  0  0  0  0  0  0  0  0  0
   58.3827   -4.5025  -18.2964 O   0  0  0  0  0  0  0  0  0  0  0  0
   59.2092   -3.5878  -18.9533 C   0  0  0  0  0  0  0  0  0  0  0  0
   60.5546   -3.8318  -19.1278 C   0  0  0  0  0  0  0  0  0  0  0  0
   61.3352   -2.8842  -19.7915 C   0  0  0  0  0  0  0  0  0  0  0  0
   60.7251   -1.7745  -20.2284 N   0  0  0  0  0  0  0  0  0  0  0  0
   59.4157   -1.5287  -20.0628 C   0  0  0  0  0  0  0  0  0  0  0  0
   58.6762   -2.4473  -19.4233 N   0  0  0  0  0  0  0  0  0  0  0  0
   62.7196   -3.0861  -19.9964 N   0  0  0  0  0  0  0  0  0  0  0  0
   63.4550   -3.9034  -19.0631 C   0  0  0  0  0  0  0  0  0  0  0  0
   63.2071   -2.6539  -20.8073 H   0  0  0  0  0  0  0  0  0  0  0  0
 24 25  1  0  0  0
 25 18  1  0  0  0
 18 19  1  0  0  0
 19 20  1  0  0  0
 20 21  1  0  0  0
 21 17  1  0  0  0
 17  7  1  0  0  0
  7  8  2  0  0  0
  8  9  1  0  0  0
  9 10  2  0  0  0
 10  1  1  0  0  0
  1  2  1  0  0  0
  2  3  2  0  0  0
  2  4  1  0  0  0
  4 26  1  0  0  0
 26 27  2  0  0  0
 27 28  1  0  0  0
 28 29  2  0  0  0
 29 32  1  0  0  0
 32 33  1  0  0  0
 33 34  2  0  0  0
 34 35  1  0  0  0
 35 39  1  0  0  0
 39 40  1  0  0  0
 35 36  2  0  0  0
 36 37  1  0  0  0
 37 38  2  0  0  0
 29 30  1  0  0  0
 30 31  2  0  0  0
 10 11  1  0  0  0
 11 12  2  0  0  0
 12 13  1  0  0  0
 13 14  1  0  0  0
 13 15  1  0  0  0
 13 16  1  0  0  0
 21 22  1  0  0  0
 22 23  1  0  0  0
 23 18  1  0  0  0
 12  7  1  0  0  0
 31 26  1  0  0  0
 38 33  1  0  0  0
  1  5  1  0  0  0
  4  6  1  0  0  0
 39 41  1  0  0  0
M  END
> <minimizedAffinity>
-7.40811

> <CNNscore>
0.3299299777

> <CNNaffinity>
6.3648214340

> <CNN_VS>
2.0999453068

> <CNNaffinity_variance>
0.1455100477

$$$$
[H]c1nc(Oc2c([H])c([H])c(N([H])C(=O)N([H])c3c([H])c([H])c(C([H])([H])N4C([H])([H])C([H])([H])N(C([H])([H])C([H])([H])[H])C([H])([H])C4([H])[H])c(C(F)(F)F)c3[H])c([H])c2[H])c([H])c(N([H])C([H])([H])[H])n1


 41 44  0  0  0  0  0  0  0  0999 V2000
   56.2196   -3.4304  -10.7701 N   0  0  0  0  0  0  0  0  0  0  0  0
   56.7233   -3.9183  -12.0032 C   0  0  0  0  0  0  0  0  0  0  0  0
   57.2136   -5.0575  -12.1362 O   0  0  0  0  0  0  0  0  0  0  0  0
   56.6665   -3.0699  -13.1369 N   0  0  0  0  0  0  0  0  0  0  0  0
   55.8253   -2.4507  -10.7569 H   0  0  0  0  0  0  0  0  0  0  0  0
   56.2397   -2.1078  -13.0047 H   0  0  0  0  0  0  0  0  0  0  0  0
   55.8957   -5.6266   -7.1920 C   0  0  0  0  0  0  0  0  0  0  0  0
   57.1360   -5.4123   -7.7115 C   0  0  0  0  0  0  0  0  0  0  0  0
   57.2768   -4.6912   -8.9093 C   0  0  0  0  0  0  0  0  0  0  0  0
   56.2187   -4.1816   -9.5953 C   0  0  0  0  0  0  0  0  0  0  0  0
   54.9639   -4.4268   -9.0233 C   0  0  0  0  0  0  0  0  0  0  0  0
   54.7712   -5.1232   -7.8600 C   0  0  0  0  0  0  0  0  0  0  0  0
   53.4078   -5.3359   -7.3320 C   0  0  0  0  0  0  0  0  0  0  0  0
   52.5156   -4.6044   -8.1329 F   0  0  0  0  0  0  0  0  0  0  0  0
   53.2063   -4.8692   -6.0648 F   0  0  0  0  0  0  0  0  0  0  0  0
   52.9635   -6.6539   -7.5064 F   0  0  0  0  0  0  0  0  0  0  0  0
   55.7367   -6.3490   -5.9361 C   0  0  0  0  0  0  0  0  0  0  0  0
   56.0701   -6.1541   -2.0343 N   0  0  0  0  0  0  0  0  0  0  0  0
   56.5049   -7.3052   -2.7580 C   0  0  0  0  0  0  0  0  0  0  0  0
   57.1613   -7.0075   -4.0841 C   0  0  0  0  0  0  0  0  0  0  0  0
   56.5413   -5.9743   -4.8359 N   0  0  0  0  0  0  0  0  0  0  0  0
   55.8967   -4.9421   -4.0771 C   0  0  0  0  0  0  0  0  0  0  0  0
   56.4399   -4.9158   -2.6650 C   0  0  0  0  0  0  0  0  0  0  0  0
   54.1265   -5.2820   -0.8069 C   0  0  0  0  0  0  0  0  0  0  0  0
   54.6392   -6.2647   -1.8273 C   0  0  0  0  0  0  0  0  0  0  0  0
   57.1437   -3.4365  -14.4028 C   0  0  0  0  0  0  0  0  0  0  0  0
   56.2435   -4.1272  -15.2216 C   0  0  0  0  0  0  0  0  0  0  0  0
   56.6291   -4.4926  -16.4817 C   0  0  0  0  0  0  0  0  0  0  0  0
   57.8734   -4.2213  -17.0146 C   0  0  0  0  0  0  0  0  0  0  0  0
   58.7471   -3.5446  -16.2058 C   0  0  0  0  0  0  0  0  0  0  0  0
   58.3746   -3.1604  -14.9138 C   0  0  0  0  0  0  0  0  0  0  0  0
   58.2305   -4.6159  -18.3176 O   0  0  0  0  0  0  0  0  0  0  0  0
   59.1043   -5.7017  -18.4114 C   0  0  0  0  0  0  0  0  0  0  0  0
   60.4016   -5.5440  -18.8495 C   0  0  0  0  0  0  0  0  0  0  0  0
   61.2330   -6.6624  -18.9242 C   0  0  0  0  0  0  0  0  0  0  0  0
   60.7167   -7.8440  -18.5607 N   0  0  0  0  0  0  0  0  0  0  0  0
   59.4547   -8.0067  -18.1330 C   0  0  0  0  0  0  0  0  0  0  0  0
   58.6657   -6.9240  -18.0657 N   0  0  0  0  0  0  0  0  0  0  0  0
   62.5715   -6.5548  -19.3669 N   0  0  0  0  0  0  0  0  0  0  0  0
   63.3536   -7.7549  -19.5341 C   0  0  0  0  0  0  0  0  0  0  0  0
   62.9926   -5.6258  -19.5710 H   0  0  0  0  0  0  0  0  0  0  0  0
 24 25  1  0  0  0
 25 18  1  0  0  0
 18 19  1  0  0  0
 19 20  1  0  0  0
 20 21  1  0  0  0
 21 17  1  0  0  0
 17  7  1  0  0  0
  7  8  2  0  0  0
  8  9  1  0  0  0
  9 10  2  0  0  0
 10  1  1  0  0  0
  1  2  1  0  0  0
  2  3  2  0  0  0
  2  4  1  0  0  0
  4 26  1  0  0  0
 26 27  2  0  0  0
 27 28  1  0  0  0
 28 29  2  0  0  0
 29 32  1  0  0  0
 32 33  1  0  0  0
 33 34  2  0  0  0
 34 35  1  0  0  0
 35 39  1  0  0  0
 39 40  1  0  0  0
 35 36  2  0  0  0
 36 37  1  0  0  0
 37 38  2  0  0  0
 29 30  1  0  0  0
 30 31  2  0  0  0
 10 11  1  0  0  0
 11 12  2  0  0  0
 12 13  1  0  0  0
 13 14  1  0  0  0
 13 15  1  0  0  0
 13 16  1  0  0  0
 21 22  1  0  0  0
 22 23  1  0  0  0
 23 18  1  0  0  0
 12  7  1  0  0  0
 31 26  1  0  0  0
 38 33  1  0  0  0
  1  5  1  0  0  0
  4  6  1  0  0  0
 39 41  1  0  0  0
M  END
> <minimizedAffinity>
-7.66824

> <CNNscore>
0.3261908889

> <CNNaffinity>
6.3977980614

> <CNN_VS>
2.0869033337

> <CNNaffinity_variance>
0.1246592551

$$$$
[H]c1nc(Oc2c([H])c([H])c(N([H])C(=O)N([H])c3c([H])c([H])c(C([H])([H])N4C([H])([H])C([H])([H])N(C([H])([H])C([H])([H])[H])C([H])([H])C4([H])[H])c(C(F)(F)F)c3[H])c([H])c2[H])c([H])c(N([H])C([H])([H])[H])n1


 41 44  0  0  0  0  0  0  0  0999 V2000
   55.4675   -3.7108  -10.5295 N   0  0  0  0  0  0  0  0  0  0  0  0
   56.3062   -3.9744  -11.6429 C   0  0  0  0  0  0  0  0  0  0  0  0
   57.2331   -4.8085  -11.6155 O   0  0  0  0  0  0  0  0  0  0  0  0
   56.0792   -3.2548  -12.8424 N   0  0  0  0  0  0  0  0  0  0  0  0
   54.7102   -2.9845  -10.6497 H   0  0  0  0  0  0  0  0  0  0  0  0
   55.2818   -2.5551  -12.8476 H   0  0  0  0  0  0  0  0  0  0  0  0
   55.5353   -5.6305   -6.7824 C   0  0  0  0  0  0  0  0  0  0  0  0
   56.7199   -5.3882   -7.4086 C   0  0  0  0  0  0  0  0  0  0  0  0
   56.7303   -4.7577   -8.6644 C   0  0  0  0  0  0  0  0  0  0  0  0
   55.5966   -4.3651   -9.3049 C   0  0  0  0  0  0  0  0  0  0  0  0
   54.4032   -4.6349   -8.6231 C   0  0  0  0  0  0  0  0  0  0  0  0
   54.3372   -5.2464   -7.3996 C   0  0  0  0  0  0  0  0  0  0  0  0
   53.0305   -5.4935   -6.7558 C   0  0  0  0  0  0  0  0  0  0  0  0
   52.0810   -4.6630   -7.3734 F   0  0  0  0  0  0  0  0  0  0  0  0
   52.9749   -5.1665   -5.4313 F   0  0  0  0  0  0  0  0  0  0  0  0
   52.5334   -6.7764   -7.0237 F   0  0  0  0  0  0  0  0  0  0  0  0
   55.5110   -6.2587   -5.4674 C   0  0  0  0  0  0  0  0  0  0  0  0
   56.4583   -6.0197   -1.6702 N   0  0  0  0  0  0  0  0  0  0  0  0
   56.7896   -7.1720   -2.4449 C   0  0  0  0  0  0  0  0  0  0  0  0
   57.2221   -6.8789   -3.8609 C   0  0  0  0  0  0  0  0  0  0  0  0
   56.4747   -5.8619   -4.5124 N   0  0  0  0  0  0  0  0  0  0  0  0
   55.9436   -4.8309   -3.6687 C   0  0  0  0  0  0  0  0  0  0  0  0
   56.7041   -4.7829   -2.3615 C   0  0  0  0  0  0  0  0  0  0  0  0
   54.7256   -5.1708   -0.1464 C   0  0  0  0  0  0  0  0  0  0  0  0
   55.0804   -6.1477   -1.2370 C   0  0  0  0  0  0  0  0  0  0  0  0
   56.8493   -3.4200  -14.0017 C   0  0  0  0  0  0  0  0  0  0  0  0
   56.1403   -3.7043  -15.1742 C   0  0  0  0  0  0  0  0  0  0  0  0
   56.8224   -3.8504  -16.3503 C   0  0  0  0  0  0  0  0  0  0  0  0
   58.1932   -3.7343  -16.4645 C   0  0  0  0  0  0  0  0  0  0  0  0
   58.8781   -3.4555  -15.3118 C   0  0  0  0  0  0  0  0  0  0  0  0
   58.2018   -3.3014  -14.0975 C   0  0  0  0  0  0  0  0  0  0  0  0
   58.8568   -3.8926  -17.6957 O   0  0  0  0  0  0  0  0  0  0  0  0
   59.5663   -2.7812  -18.1568 C   0  0  0  0  0  0  0  0  0  0  0  0
   58.9307   -1.5931  -18.4472 C   0  0  0  0  0  0  0  0  0  0  0  0
   59.6873   -0.5134  -18.9049 C   0  0  0  0  0  0  0  0  0  0  0  0
   61.0079   -0.6941  -19.0385 N   0  0  0  0  0  0  0  0  0  0  0  0
   61.6351   -1.8475  -18.7582 C   0  0  0  0  0  0  0  0  0  0  0  0
   60.8968   -2.8778  -18.3190 N   0  0  0  0  0  0  0  0  0  0  0  0
   59.0840    0.7269  -19.2166 N   0  0  0  0  0  0  0  0  0  0  0  0
   57.6876    0.7571  -19.5758 C   0  0  0  0  0  0  0  0  0  0  0  0
   59.6342    1.6093  -19.1893 H   0  0  0  0  0  0  0  0  0  0  0  0
 24 25  1  0  0  0
 25 18  1  0  0  0
 18 19  1  0  0  0
 19 20  1  0  0  0
 20 21  1  0  0  0
 21 17  1  0  0  0
 17  7  1  0  0  0
  7  8  2  0  0  0
  8  9  1  0  0  0
  9 10  2  0  0  0
 10  1  1  0  0  0
  1  2  1  0  0  0
  2  3  2  0  0  0
  2  4  1  0  0  0
  4 26  1  0  0  0
 26 27  2  0  0  0
 27 28  1  0  0  0
 28 29  2  0  0  0
 29 32  1  0  0  0
 32 33  1  0  0  0
 33 34  2  0  0  0
 34 35  1  0  0  0
 35 39  1  0  0  0
 39 40  1  0  0  0
 35 36  2  0  0  0
 36 37  1  0  0  0
 37 38  2  0  0  0
 29 30  1  0  0  0
 30 31  2  0  0  0
 10 11  1  0  0  0
 11 12  2  0  0  0
 12 13  1  0  0  0
 13 14  1  0  0  0
 13 15  1  0  0  0
 13 16  1  0  0  0
 21 22  1  0  0  0
 22 23  1  0  0  0
 23 18  1  0  0  0
 12  7  1  0  0  0
 31 26  1  0  0  0
 38 33  1  0  0  0
  1  5  1  0  0  0
  4  6  1  0  0  0
 39 41  1  0  0  0
M  END
> <minimizedAffinity>
-7.83141

> <CNNscore>
0.3043459058

> <CNNaffinity>
6.4583053589

> <CNN_VS>
1.9655587673

> <CNNaffinity_variance>
0.0396359973

$$$$
[H]c1nc(Oc2c([H])c([H])c(N([H])C(=O)N([H])c3c([H])c([H])c(C([H])([H])N4C([H])([H])C([H])([H])N(C([H])([H])C([H])([H])[H])C([H])([H])C4([H])[H])c(C(F)(F)F)c3[H])c([H])c2[H])c([H])c(N([H])C([H])([H])[H])n1


 41 44  0  0  0  0  0  0  0  0999 V2000
   55.4508   -3.6966  -11.0247 N   0  0  0  0  0  0  0  0  0  0  0  0
   56.3501   -3.9470  -12.0929 C   0  0  0  0  0  0  0  0  0  0  0  0
   57.4142   -4.5827  -11.9530 O   0  0  0  0  0  0  0  0  0  0  0  0
   56.0229   -3.4506  -13.3792 N   0  0  0  0  0  0  0  0  0  0  0  0
   54.5756   -3.1469  -11.2419 H   0  0  0  0  0  0  0  0  0  0  0  0
   55.1105   -2.9188  -13.4788 H   0  0  0  0  0  0  0  0  0  0  0  0
   55.7883   -4.9991   -7.0347 C   0  0  0  0  0  0  0  0  0  0  0  0
   56.9290   -4.8082   -7.7534 C   0  0  0  0  0  0  0  0  0  0  0  0
   56.8496   -4.3830   -9.0903 C   0  0  0  0  0  0  0  0  0  0  0  0
   55.6692   -4.1443   -9.7223 C   0  0  0  0  0  0  0  0  0  0  0  0
   54.5236   -4.3539   -8.9440 C   0  0  0  0  0  0  0  0  0  0  0  0
   54.5451   -4.7679   -7.6389 C   0  0  0  0  0  0  0  0  0  0  0  0
   53.2836   -4.9659   -6.8956 C   0  0  0  0  0  0  0  0  0  0  0  0
   52.7960   -6.2460   -7.2059 F   0  0  0  0  0  0  0  0  0  0  0  0
   52.2759   -4.1123   -7.2421 F   0  0  0  0  0  0  0  0  0  0  0  0
   53.4826   -5.0433   -5.5102 F   0  0  0  0  0  0  0  0  0  0  0  0
   55.8564   -5.4134   -5.6389 C   0  0  0  0  0  0  0  0  0  0  0  0
   56.0659   -8.2633   -2.9543 N   0  0  0  0  0  0  0  0  0  0  0  0
   54.9365   -8.1422   -3.8190 C   0  0  0  0  0  0  0  0  0  0  0  0
   55.2649   -7.7327   -5.2341 C   0  0  0  0  0  0  0  0  0  0  0  0
   56.2681   -6.7337   -5.3465 N   0  0  0  0  0  0  0  0  0  0  0  0
   57.2689   -6.7266   -4.3193 C   0  0  0  0  0  0  0  0  0  0  0  0
   57.3203   -8.0733   -3.6313 C   0  0  0  0  0  0  0  0  0  0  0  0
   56.7167   -7.7182   -0.6469 C   0  0  0  0  0  0  0  0  0  0  0  0
   55.8884   -7.3428   -1.8481 C   0  0  0  0  0  0  0  0  0  0  0  0
   56.8379   -3.6243  -14.5063 C   0  0  0  0  0  0  0  0  0  0  0  0
   56.2446   -4.2651  -15.5997 C   0  0  0  0  0  0  0  0  0  0  0  0
   56.9699   -4.4443  -16.7450 C   0  0  0  0  0  0  0  0  0  0  0  0
   58.2766   -4.0276  -16.9015 C   0  0  0  0  0  0  0  0  0  0  0  0
   58.8482   -3.4012  -15.8262 C   0  0  0  0  0  0  0  0  0  0  0  0
   58.1258   -3.2064  -14.6448 C   0  0  0  0  0  0  0  0  0  0  0  0
   58.9881   -4.2323  -18.0987 O   0  0  0  0  0  0  0  0  0  0  0  0
   60.3589   -4.4650  -17.9648 C   0  0  0  0  0  0  0  0  0  0  0  0
   60.8495   -5.7205  -17.6764 C   0  0  0  0  0  0  0  0  0  0  0  0
   62.2282   -5.8981  -17.5535 C   0  0  0  0  0  0  0  0  0  0  0  0
   63.0095   -4.8234  -17.7249 N   0  0  0  0  0  0  0  0  0  0  0  0
   62.5404   -3.5973  -18.0058 C   0  0  0  0  0  0  0  0  0  0  0  0
   61.2132   -3.4397  -18.1214 N   0  0  0  0  0  0  0  0  0  0  0  0
   62.7825   -7.1651  -17.2588 N   0  0  0  0  0  0  0  0  0  0  0  0
   63.2506   -7.4320  -15.9211 C   0  0  0  0  0  0  0  0  0  0  0  0
   62.8546   -7.8992  -17.9923 H   0  0  0  0  0  0  0  0  0  0  0  0
 24 25  1  0  0  0
 25 18  1  0  0  0
 18 19  1  0  0  0
 19 20  1  0  0  0
 20 21  1  0  0  0
 21 17  1  0  0  0
 17  7  1  0  0  0
  7  8  2  0  0  0
  8  9  1  0  0  0
  9 10  2  0  0  0
 10  1  1  0  0  0
  1  2  1  0  0  0
  2  3  2  0  0  0
  2  4  1  0  0  0
  4 26  1  0  0  0
 26 27  2  0  0  0
 27 28  1  0  0  0
 28 29  2  0  0  0
 29 32  1  0  0  0
 32 33  1  0  0  0
 33 34  2  0  0  0
 34 35  1  0  0  0
 35 39  1  0  0  0
 39 40  1  0  0  0
 35 36  2  0  0  0
 36 37  1  0  0  0
 37 38  2  0  0  0
 29 30  1  0  0  0
 30 31  2  0  0  0
 10 11  1  0  0  0
 11 12  2  0  0  0
 12 13  1  0  0  0
 13 14  1  0  0  0
 13 15  1  0  0  0
 13 16  1  0  0  0
 21 22  1  0  0  0
 22 23  1  0  0  0
 23 18  1  0  0  0
 12  7  1  0  0  0
 31 26  1  0  0  0
 38 33  1  0  0  0
  1  5  1  0  0  0
  4  6  1  0  0  0
 39 41  1  0  0  0
M  END
> <minimizedAffinity>
-7.47156

> <CNNscore>
0.2981078923

> <CNNaffinity>
6.4465065002

> <CNN_VS>
1.9217544794

> <CNNaffinity_variance>
0.2964847386

$$$$
[H]c1nc(Oc2c([H])c([H])c(N([H])C(=O)N([H])c3c([H])c([H])c(C([H])([H])N4C([H])([H])C([H])([H])N(C([H])([H])C([H])([H])[H])C([H])([H])C4([H])[H])c(C(F)(F)F)c3[H])c([H])c2[H])c([H])c(N([H])C([H])([H])[H])n1


 41 44  0  0  0  0  0  0  0  0999 V2000
   60.5179   -6.5731   -9.6309 N   0  0  0  0  0  0  0  0  0  0  0  0
   59.3751   -5.8754   -9.1621 C   0  0  0  0  0  0  0  0  0  0  0  0
   59.1979   -5.5867   -7.9616 O   0  0  0  0  0  0  0  0  0  0  0  0
   58.3888   -5.4890  -10.1033 N   0  0  0  0  0  0  0  0  0  0  0  0
   60.5772   -6.7733  -10.6662 H   0  0  0  0  0  0  0  0  0  0  0  0
   58.5614   -5.7377  -11.1201 H   0  0  0  0  0  0  0  0  0  0  0  0
   63.7888   -7.5535   -7.1671 C   0  0  0  0  0  0  0  0  0  0  0  0
   62.8784   -8.5248   -7.4536 C   0  0  0  0  0  0  0  0  0  0  0  0
   61.7707   -8.2268   -8.2652 C   0  0  0  0  0  0  0  0  0  0  0  0
   61.5517   -6.9935   -8.7948 C   0  0  0  0  0  0  0  0  0  0  0  0
   62.5136   -6.0274   -8.4733 C   0  0  0  0  0  0  0  0  0  0  0  0
   63.6097   -6.2647   -7.6874 C   0  0  0  0  0  0  0  0  0  0  0  0
   64.5722   -5.1815   -7.3985 C   0  0  0  0  0  0  0  0  0  0  0  0
   64.9654   -5.3003   -6.0554 F   0  0  0  0  0  0  0  0  0  0  0  0
   64.0616   -3.9197   -7.5050 F   0  0  0  0  0  0  0  0  0  0  0  0
   65.7833   -5.3412   -8.0858 F   0  0  0  0  0  0  0  0  0  0  0  0
   64.9569   -7.8554   -6.3493 C   0  0  0  0  0  0  0  0  0  0  0  0
   65.9156  -10.8862   -8.6447 N   0  0  0  0  0  0  0  0  0  0  0  0
   65.7483   -9.5742   -9.1820 C   0  0  0  0  0  0  0  0  0  0  0  0
   66.2641   -8.4608   -8.3033 C   0  0  0  0  0  0  0  0  0  0  0  0
   65.9977   -8.6247   -6.9178 N   0  0  0  0  0  0  0  0  0  0  0  0
   65.9330   -9.9766   -6.4437 C   0  0  0  0  0  0  0  0  0  0  0  0
   66.6456  -10.9018   -7.4059 C   0  0  0  0  0  0  0  0  0  0  0  0
   64.6782  -12.9859   -8.3205 C   0  0  0  0  0  0  0  0  0  0  0  0
   64.6051  -11.4947   -8.5231 C   0  0  0  0  0  0  0  0  0  0  0  0
   57.2136   -4.8078   -9.7577 C   0  0  0  0  0  0  0  0  0  0  0  0
   56.3542   -4.4908  -10.8155 C   0  0  0  0  0  0  0  0  0  0  0  0
   55.1747   -3.8513  -10.5514 C   0  0  0  0  0  0  0  0  0  0  0  0
   54.7631   -3.4884   -9.2847 C   0  0  0  0  0  0  0  0  0  0  0  0
   55.6105   -3.8033   -8.2561 C   0  0  0  0  0  0  0  0  0  0  0  0
   56.8218   -4.4575   -8.5022 C   0  0  0  0  0  0  0  0  0  0  0  0
   53.5399   -2.8304   -9.0562 O   0  0  0  0  0  0  0  0  0  0  0  0
   52.6379   -3.4877   -8.2163 C   0  0  0  0  0  0  0  0  0  0  0  0
   51.5399   -2.8390   -7.6932 C   0  0  0  0  0  0  0  0  0  0  0  0
   50.6700   -3.5428   -6.8592 C   0  0  0  0  0  0  0  0  0  0  0  0
   50.9544   -4.8279   -6.6097 N   0  0  0  0  0  0  0  0  0  0  0  0
   52.0212   -5.4675   -7.1147 C   0  0  0  0  0  0  0  0  0  0  0  0
   52.8497   -4.7800   -7.9150 N   0  0  0  0  0  0  0  0  0  0  0  0
   49.5296   -2.9241   -6.2971 N   0  0  0  0  0  0  0  0  0  0  0  0
   49.1366   -3.2672   -4.9525 C   0  0  0  0  0  0  0  0  0  0  0  0
   48.9772   -2.2301   -6.8404 H   0  0  0  0  0  0  0  0  0  0  0  0
 24 25  1  0  0  0
 25 18  1  0  0  0
 18 19  1  0  0  0
 19 20  1  0  0  0
 20 21  1  0  0  0
 21 17  1  0  0  0
 17  7  1  0  0  0
  7  8  2  0  0  0
  8  9  1  0  0  0
  9 10  2  0  0  0
 10  1  1  0  0  0
  1  2  1  0  0  0
  2  3  2  0  0  0
  2  4  1  0  0  0
  4 26  1  0  0  0
 26 27  2  0  0  0
 27 28  1  0  0  0
 28 29  2  0  0  0
 29 32  1  0  0  0
 32 33  1  0  0  0
 33 34  2  0  0  0
 34 35  1  0  0  0
 35 39  1  0  0  0
 39 40  1  0  0  0
 35 36  2  0  0  0
 36 37  1  0  0  0
 37 38  2  0  0  0
 29 30  1  0  0  0
 30 31  2  0  0  0
 10 11  1  0  0  0
 11 12  2  0  0  0
 12 13  1  0  0  0
 13 14  1  0  0  0
 13 15  1  0  0  0
 13 16  1  0  0  0
 21 22  1  0  0  0
 22 23  1  0  0  0
 23 18  1  0  0  0
 12  7  1  0  0  0
 31 26  1  0  0  0
 38 33  1  0  0  0
  1  5  1  0  0  0
  4  6  1  0  0  0
 39 41  1  0  0  0
M  END
> <minimizedAffinity>
-7.49077

> <CNNscore>
0.2950406671

> <CNNaffinity>
6.0504460335

> <CNN_VS>
1.7851276398

> <CNNaffinity_variance>
0.0859790146

$$$$
[H]c1nc(Oc2c([H])c([H])c(N([H])C(=O)N([H])c3c([H])c([H])c(C([H])([H])N4C([H])([H])C([H])([H])N(C([H])([H])C([H])([H])[H])C([H])([H])C4([H])[H])c(C(F)(F)F)c3[H])c([H])c2[H])c([H])c(N([H])C([H])([H])[H])n1


 41 44  0  0  0  0  0  0  0  0999 V2000
   56.1143   -3.4301  -10.9260 N   0  0  0  0  0  0  0  0  0  0  0  0
   56.6965   -3.8970  -12.1324 C   0  0  0  0  0  0  0  0  0  0  0  0
   57.2721   -4.9994  -12.2293 O   0  0  0  0  0  0  0  0  0  0  0  0
   56.6201   -3.0707  -13.2811 N   0  0  0  0  0  0  0  0  0  0  0  0
   55.6502   -2.4815  -10.9428 H   0  0  0  0  0  0  0  0  0  0  0  0
   56.1205   -2.1403  -13.1799 H   0  0  0  0  0  0  0  0  0  0  0  0
   55.8252   -5.5690   -7.3105 C   0  0  0  0  0  0  0  0  0  0  0  0
   57.0597   -5.3702   -7.8496 C   0  0  0  0  0  0  0  0  0  0  0  0
   57.1888   -4.6685   -9.0602 C   0  0  0  0  0  0  0  0  0  0  0  0
   56.1247   -4.1631   -9.7398 C   0  0  0  0  0  0  0  0  0  0  0  0
   54.8761   -4.3919   -9.1475 C   0  0  0  0  0  0  0  0  0  0  0  0
   54.6950   -5.0691   -7.9712 C   0  0  0  0  0  0  0  0  0  0  0  0
   53.3375   -5.2655   -7.4219 C   0  0  0  0  0  0  0  0  0  0  0  0
   52.4436   -4.5120   -8.2004 F   0  0  0  0  0  0  0  0  0  0  0  0
   53.1650   -4.8082   -6.1470 F   0  0  0  0  0  0  0  0  0  0  0  0
   52.8692   -6.5744   -7.6013 F   0  0  0  0  0  0  0  0  0  0  0  0
   55.6788   -6.2711   -6.0415 C   0  0  0  0  0  0  0  0  0  0  0  0
   56.1775   -6.2036   -2.1531 N   0  0  0  0  0  0  0  0  0  0  0  0
   56.6361   -7.3032   -2.9395 C   0  0  0  0  0  0  0  0  0  0  0  0
   57.2165   -6.9233   -4.2799 C   0  0  0  0  0  0  0  0  0  0  0  0
   56.5125   -5.8963   -4.9632 N   0  0  0  0  0  0  0  0  0  0  0  0
   55.8520   -4.9275   -4.1374 C   0  0  0  0  0  0  0  0  0  0  0  0
   56.4562   -4.9254   -2.7501 C   0  0  0  0  0  0  0  0  0  0  0  0
   54.2925   -7.7789   -2.2535 C   0  0  0  0  0  0  0  0  0  0  0  0
   54.7647   -6.3954   -1.8891 C   0  0  0  0  0  0  0  0  0  0  0  0
   57.1683   -3.4190  -14.5231 C   0  0  0  0  0  0  0  0  0  0  0  0
   56.3248   -4.1216  -15.3909 C   0  0  0  0  0  0  0  0  0  0  0  0
   56.7813   -4.4706  -16.6318 C   0  0  0  0  0  0  0  0  0  0  0  0
   58.0454   -4.1713  -17.0989 C   0  0  0  0  0  0  0  0  0  0  0  0
   58.8632   -3.4832  -16.2426 C   0  0  0  0  0  0  0  0  0  0  0  0
   58.4179   -3.1154  -14.9691 C   0  0  0  0  0  0  0  0  0  0  0  0
   58.4762   -4.5498  -18.3843 O   0  0  0  0  0  0  0  0  0  0  0  0
   58.8333   -5.8912  -18.5408 C   0  0  0  0  0  0  0  0  0  0  0  0
   58.0476   -6.7641  -19.2624 C   0  0  0  0  0  0  0  0  0  0  0  0
   58.4509   -8.0942  -19.3877 C   0  0  0  0  0  0  0  0  0  0  0  0
   59.5953   -8.4540  -18.7914 N   0  0  0  0  0  0  0  0  0  0  0  0
   60.3665   -7.6106  -18.0869 C   0  0  0  0  0  0  0  0  0  0  0  0
   59.9680   -6.3348  -17.9738 N   0  0  0  0  0  0  0  0  0  0  0  0
   57.6813   -9.0298  -20.1170 N   0  0  0  0  0  0  0  0  0  0  0  0
   57.0216  -10.0991  -19.4090 C   0  0  0  0  0  0  0  0  0  0  0  0
   57.5880   -8.9535  -21.1502 H   0  0  0  0  0  0  0  0  0  0  0  0
 24 25  1  0  0  0
 25 18  1  0  0  0
 18 19  1  0  0  0
 19 20  1  0  0  0
 20 21  1  0  0  0
 21 17  1  0  0  0
 17  7  1  0  0  0
  7  8  2  0  0  0
  8  9  1  0  0  0
  9 10  2  0  0  0
 10  1  1  0  0  0
  1  2  1  0  0  0
  2  3  2  0  0  0
  2  4  1  0  0  0
  4 26  1  0  0  0
 26 27  2  0  0  0
 27 28  1  0  0  0
 28 29  2  0  0  0
 29 32  1  0  0  0
 32 33  1  0  0  0
 33 34  2  0  0  0
 34 35  1  0  0  0
 35 39  1  0  0  0
 39 40  1  0  0  0
 35 36  2  0  0  0
 36 37  1  0  0  0
 37 38  2  0  0  0
 29 30  1  0  0  0
 30 31  2  0  0  0
 10 11  1  0  0  0
 11 12  2  0  0  0
 12 13  1  0  0  0
 13 14  1  0  0  0
 13 15  1  0  0  0
 13 16  1  0  0  0
 21 22  1  0  0  0
 22 23  1  0  0  0
 23 18  1  0  0  0
 12  7  1  0  0  0
 31 26  1  0  0  0
 38 33  1  0  0  0
  1  5  1  0  0  0
  4  6  1  0  0  0
 39 41  1  0  0  0
M  END
> <minimizedAffinity>
-7.88210

> <CNNscore>
0.2934058309

> <CNNaffinity>
6.3332977295

> <CNN_VS>
1.8582265377

> <CNNaffinity_variance>
0.1019674689

$$$$
[H]c1nc(Oc2c([H])c([H])c(N([H])C(=O)N([H])c3c([H])c([H])c(C([H])([H])N4C([H])([H])C([H])([H])N(C([H])([H])C([H])([H])[H])C([H])([H])C4([H])[H])c(C(F)(F)F)c3[H])c([H])c2[H])c([H])c(N([H])C([H])([H])[H])n1


 41 44  0  0  0  0  0  0  0  0999 V2000
   54.3969   -3.9894   -9.1734 N   0  0  0  0  0  0  0  0  0  0  0  0
   55.5168   -4.1757  -10.0241 C   0  0  0  0  0  0  0  0  0  0  0  0
   56.4780   -4.9154   -9.7332 O   0  0  0  0  0  0  0  0  0  0  0  0
   55.5434   -3.4878  -11.2627 N   0  0  0  0  0  0  0  0  0  0  0  0
   53.6329   -3.3410   -9.5068 H   0  0  0  0  0  0  0  0  0  0  0  0
   54.7135   -2.8691  -11.4947 H   0  0  0  0  0  0  0  0  0  0  0  0
   53.6790   -5.7998   -5.4401 C   0  0  0  0  0  0  0  0  0  0  0  0
   54.9617   -5.7319   -5.8921 C   0  0  0  0  0  0  0  0  0  0  0  0
   55.2330   -5.1424   -7.1384 C   0  0  0  0  0  0  0  0  0  0  0  0
   54.2637   -4.6218   -7.9377 C   0  0  0  0  0  0  0  0  0  0  0  0
   52.9608   -4.7141   -7.4317 C   0  0  0  0  0  0  0  0  0  0  0  0
   52.6420   -5.2785   -6.2255 C   0  0  0  0  0  0  0  0  0  0  0  0
   51.2365   -5.3345   -5.7734 C   0  0  0  0  0  0  0  0  0  0  0  0
   50.4477   -4.6797   -6.7335 F   0  0  0  0  0  0  0  0  0  0  0  0
   50.9855   -4.6761   -4.6039 F   0  0  0  0  0  0  0  0  0  0  0  0
   50.7181   -6.6367   -5.7899 F   0  0  0  0  0  0  0  0  0  0  0  0
   53.3860   -6.3837   -4.1371 C   0  0  0  0  0  0  0  0  0  0  0  0
   54.1761   -6.6739   -0.3077 N   0  0  0  0  0  0  0  0  0  0  0  0
   55.1464   -7.0285   -1.2929 C   0  0  0  0  0  0  0  0  0  0  0  0
   55.1689   -6.1343   -2.5085 C   0  0  0  0  0  0  0  0  0  0  0  0
   53.8885   -5.7422   -2.9820 N   0  0  0  0  0  0  0  0  0  0  0  0
   52.8587   -5.6239   -1.9910 C   0  0  0  0  0  0  0  0  0  0  0  0
   53.4723   -5.4589   -0.6178 C   0  0  0  0  0  0  0  0  0  0  0  0
   52.5608   -7.7605    1.1941 C   0  0  0  0  0  0  0  0  0  0  0  0
   53.2822   -7.8014   -0.1280 C   0  0  0  0  0  0  0  0  0  0  0  0
   56.6002   -3.5830  -12.1785 C   0  0  0  0  0  0  0  0  0  0  0  0
   56.2385   -3.6437  -13.5289 C   0  0  0  0  0  0  0  0  0  0  0  0
   57.2170   -3.7090  -14.4819 C   0  0  0  0  0  0  0  0  0  0  0  0
   58.5680   -3.7196  -14.1982 C   0  0  0  0  0  0  0  0  0  0  0  0
   58.9119   -3.6594  -12.8740 C   0  0  0  0  0  0  0  0  0  0  0  0
   57.9286   -3.5916  -11.8821 C   0  0  0  0  0  0  0  0  0  0  0  0
   59.5437   -3.7881  -15.2104 O   0  0  0  0  0  0  0  0  0  0  0  0
   59.1947   -3.2195  -16.4377 C   0  0  0  0  0  0  0  0  0  0  0  0
   58.8704   -4.0016  -17.5253 C   0  0  0  0  0  0  0  0  0  0  0  0
   58.5289   -3.3821  -18.7284 C   0  0  0  0  0  0  0  0  0  0  0  0
   58.5353   -2.0429  -18.7598 N   0  0  0  0  0  0  0  0  0  0  0  0
   58.8499   -1.2735  -17.7055 C   0  0  0  0  0  0  0  0  0  0  0  0
   59.1763   -1.8810  -16.5549 N   0  0  0  0  0  0  0  0  0  0  0  0
   58.1881   -4.1384  -19.8735 N   0  0  0  0  0  0  0  0  0  0  0  0
   57.2123   -5.1934  -19.7524 C   0  0  0  0  0  0  0  0  0  0  0  0
   58.6314   -3.9417  -20.7937 H   0  0  0  0  0  0  0  0  0  0  0  0
 24 25  1  0  0  0
 25 18  1  0  0  0
 18 19  1  0  0  0
 19 20  1  0  0  0
 20 21  1  0  0  0
 21 17  1  0  0  0
 17  7  1  0  0  0
  7  8  2  0  0  0
  8  9  1  0  0  0
  9 10  2  0  0  0
 10  1  1  0  0  0
  1  2  1  0  0  0
  2  3  2  0  0  0
  2  4  1  0  0  0
  4 26  1  0  0  0
 26 27  2  0  0  0
 27 28  1  0  0  0
 28 29  2  0  0  0
 29 32  1  0  0  0
 32 33  1  0  0  0
 33 34  2  0  0  0
 34 35  1  0  0  0
 35 39  1  0  0  0
 39 40  1  0  0  0
 35 36  2  0  0  0
 36 37  1  0  0  0
 37 38  2  0  0  0
 29 30  1  0  0  0
 30 31  2  0  0  0
 10 11  1  0  0  0
 11 12  2  0  0  0
 12 13  1  0  0  0
 13 14  1  0  0  0
 13 15  1  0  0  0
 13 16  1  0  0  0
 21 22  1  0  0  0
 22 23  1  0  0  0
 23 18  1  0  0  0
 12  7  1  0  0  0
 31 26  1  0  0  0
 38 33  1  0  0  0
  1  5  1  0  0  0
  4  6  1  0  0  0
 39 41  1  0  0  0
M  END
> <minimizedAffinity>
-8.33336

> <CNNscore>
0.2509137392

> <CNNaffinity>
6.6296296120

> <CNN_VS>
1.6634651423

> <CNNaffinity_variance>
0.3338326812

$$$$
[H]c1c([H])c([H])c(C([H])([H])[C@@]([H])(C(=O)N([H])[C@]([H])(c2c([H])c([H])c(C(F)(F)F)c([H])c2[H])C([H])([H])[H])N([H])C(=O)c2c([H])c([H])c(C(F)(F)F)c([H])c2[H])c([H])c1[H]


 38 40  0  0  0  0  0  0  0  0999 V2000
   55.7407   -5.3509   -9.2273 C   0  0  0  0  0  0  0  0  0  0  0  0
   56.0587   -4.0491  -11.4149 N   0  0  0  0  0  0  0  0  0  0  0  0
   55.3962   -4.9754  -10.6145 C   0  0  0  0  0  0  0  0  0  0  0  0
   54.3850   -5.5816  -11.0980 O   0  0  0  0  0  0  0  0  0  0  0  0
   56.9131   -3.5544  -11.0456 H   0  0  0  0  0  0  0  0  0  0  0  0
   54.7569   -2.5086  -12.7171 C   0  0  0  0  0  0  0  0  0  0  0  0
   55.6666   -3.6958  -12.7563 C   0  0  0  0  0  0  0  0  0  0  0  0
   56.8246   -3.4579  -13.6716 C   0  0  0  0  0  0  0  0  0  0  0  0
   57.9083   -4.3408  -13.6180 C   0  0  0  0  0  0  0  0  0  0  0  0
   59.0310   -4.2152  -14.4044 C   0  0  0  0  0  0  0  0  0  0  0  0
   59.0870   -3.1596  -15.2907 C   0  0  0  0  0  0  0  0  0  0  0  0
   58.0446   -2.2715  -15.3726 C   0  0  0  0  0  0  0  0  0  0  0  0
   56.9046   -2.4192  -14.5591 C   0  0  0  0  0  0  0  0  0  0  0  0
   60.3246   -3.0809  -16.1218 C   0  0  0  0  0  0  0  0  0  0  0  0
   59.8983   -3.3750  -17.4219 F   0  0  0  0  0  0  0  0  0  0  0  0
   60.9814   -1.8955  -16.0314 F   0  0  0  0  0  0  0  0  0  0  0  0
   61.1048   -4.1772  -15.7646 F   0  0  0  0  0  0  0  0  0  0  0  0
   56.9785   -6.0708   -9.0837 N   0  0  0  0  0  0  0  0  0  0  0  0
   58.2555   -5.4961   -9.3075 C   0  0  0  0  0  0  0  0  0  0  0  0
   58.2950   -4.2815   -9.6309 O   0  0  0  0  0  0  0  0  0  0  0  0
   56.9459   -7.0764   -8.7956 H   0  0  0  0  0  0  0  0  0  0  0  0
   59.4976   -6.2238   -9.1854 C   0  0  0  0  0  0  0  0  0  0  0  0
   60.7440   -5.7155   -9.4505 C   0  0  0  0  0  0  0  0  0  0  0  0
   61.9014   -6.4991   -9.3255 C   0  0  0  0  0  0  0  0  0  0  0  0
   61.8038   -7.7946   -8.9328 C   0  0  0  0  0  0  0  0  0  0  0  0
   60.5760   -8.3320   -8.6604 C   0  0  0  0  0  0  0  0  0  0  0  0
   59.4566   -7.5542   -8.7877 C   0  0  0  0  0  0  0  0  0  0  0  0
   63.0524   -8.6165   -8.8226 C   0  0  0  0  0  0  0  0  0  0  0  0
   63.1958   -9.2307   -7.6104 F   0  0  0  0  0  0  0  0  0  0  0  0
   64.1139   -7.7062   -8.9511 F   0  0  0  0  0  0  0  0  0  0  0  0
   63.1300   -9.5021   -9.8655 F   0  0  0  0  0  0  0  0  0  0  0  0
   55.4195   -4.3538   -8.1754 C   0  0  0  0  0  0  0  0  0  0  0  0
   54.5825   -4.9151   -7.0961 C   0  0  0  0  0  0  0  0  0  0  0  0
   53.2840   -4.4254   -6.9076 C   0  0  0  0  0  0  0  0  0  0  0  0
   52.4748   -4.8901   -5.8903 C   0  0  0  0  0  0  0  0  0  0  0  0
   52.9246   -5.8627   -5.0203 C   0  0  0  0  0  0  0  0  0  0  0  0
   54.2024   -6.3553   -5.1959 C   0  0  0  0  0  0  0  0  0  0  0  0
   54.9746   -5.8716   -6.2115 C   0  0  0  0  0  0  0  0  0  0  0  0
  6  7  1  0  0  0
  7  2  1  0  0  0
  2  3  1  0  0  0
  3  4  2  0  0  0
  3  1  1  0  0  0
  1 32  1  0  0  0
 32 33  1  0  0  0
 33 34  2  0  0  0
 34 35  1  0  0  0
 35 36  2  0  0  0
 36 37  1  0  0  0
 37 38  2  0  0  0
  1 18  1  0  0  0
 18 19  1  0  0  0
 19 20  2  0  0  0
 19 22  1  0  0  0
 22 23  2  0  0  0
 23 24  1  0  0  0
 24 25  2  0  0  0
 25 26  1  0  0  0
 26 27  2  0  0  0
 25 28  1  0  0  0
 28 29  1  0  0  0
 28 30  1  0  0  0
 28 31  1  0  0  0
  7  8  1  0  0  0
  8  9  2  0  0  0
  9 10  1  0  0  0
 10 11  2  0  0  0
 11 12  1  0  0  0
 12 13  2  0  0  0
 11 14  1  0  0  0
 14 15  1  0  0  0
 14 16  1  0  0  0
 14 17  1  0  0  0
 38 33  1  0  0  0
 27 22  1  0  0  0
 13  8  1  0  0  0
  2  5  1  0  0  0
 18 21  1  0  0  0
M  END
> <minimizedAffinity>
11.09029

> <CNNscore>
0.4255942106

> <CNNaffinity>
5.9619436264

> <CNN_VS>
2.5373687744

> <CNNaffinity_variance>
1.7740367651

$$$$
[H]c1c([H])c([H])c(C([H])([H])[C@@]([H])(C(=O)N([H])[C@]([H])(c2c([H])c([H])c(C(F)(F)F)c([H])c2[H])C([H])([H])[H])N([H])C(=O)c2c([H])c([H])c(C(F)(F)F)c([H])c2[H])c([H])c1[H]


 38 40  0  0  0  0  0  0  0  0999 V2000
   61.9111   -7.0979   -8.8313 C   0  0  0  0  0  0  0  0  0  0  0  0
   61.6348   -9.0379   -7.1757 N   0  0  0  0  0  0  0  0  0  0  0  0
   61.5709   -8.4849   -8.4515 C   0  0  0  0  0  0  0  0  0  0  0  0
   61.1809   -9.2234   -9.4139 O   0  0  0  0  0  0  0  0  0  0  0  0
   61.9297   -8.4391   -6.3598 H   0  0  0  0  0  0  0  0  0  0  0  0
   62.4629  -11.2902   -7.2462 C   0  0  0  0  0  0  0  0  0  0  0  0
   61.3181  -10.4081   -6.8592 C   0  0  0  0  0  0  0  0  0  0  0  0
   60.9370  -10.6156   -5.4284 C   0  0  0  0  0  0  0  0  0  0  0  0
   60.6777  -11.9186   -4.9905 C   0  0  0  0  0  0  0  0  0  0  0  0
   60.3096  -12.2282   -3.7008 C   0  0  0  0  0  0  0  0  0  0  0  0
   60.1897  -11.1948   -2.7949 C   0  0  0  0  0  0  0  0  0  0  0  0
   60.4347   -9.9028   -3.1859 C   0  0  0  0  0  0  0  0  0  0  0  0
   60.8112   -9.6083   -4.5106 C   0  0  0  0  0  0  0  0  0  0  0  0
   59.7964  -11.5932   -1.4111 C   0  0  0  0  0  0  0  0  0  0  0  0
   58.5722  -10.9515   -1.1915 F   0  0  0  0  0  0  0  0  0  0  0  0
   59.7375  -12.9358   -1.2139 F   0  0  0  0  0  0  0  0  0  0  0  0
   60.6788  -10.9435   -0.5524 F   0  0  0  0  0  0  0  0  0  0  0  0
   61.1074   -6.5444   -9.8891 N   0  0  0  0  0  0  0  0  0  0  0  0
   59.9129   -5.8117   -9.6710 C   0  0  0  0  0  0  0  0  0  0  0  0
   59.5574   -5.6257   -8.4793 O   0  0  0  0  0  0  0  0  0  0  0  0
   61.4142   -6.6828  -10.8801 H   0  0  0  0  0  0  0  0  0  0  0  0
   59.0935   -5.2749  -10.7329 C   0  0  0  0  0  0  0  0  0  0  0  0
   59.5640   -4.6360  -11.8521 C   0  0  0  0  0  0  0  0  0  0  0  0
   58.6957   -4.1248  -12.8289 C   0  0  0  0  0  0  0  0  0  0  0  0
   57.3533   -4.2577  -12.6789 C   0  0  0  0  0  0  0  0  0  0  0  0
   56.8516   -4.8898  -11.5748 C   0  0  0  0  0  0  0  0  0  0  0  0
   57.7123   -5.3824  -10.6309 C   0  0  0  0  0  0  0  0  0  0  0  0
   56.4453   -3.6889  -13.7270 C   0  0  0  0  0  0  0  0  0  0  0  0
   57.0845   -2.8744  -14.6188 F   0  0  0  0  0  0  0  0  0  0  0  0
   55.5210   -2.8926  -13.0315 F   0  0  0  0  0  0  0  0  0  0  0  0
   55.7506   -4.6939  -14.3476 F   0  0  0  0  0  0  0  0  0  0  0  0
   62.2818   -6.1828   -7.7226 C   0  0  0  0  0  0  0  0  0  0  0  0
   63.4541   -6.6578   -6.9608 C   0  0  0  0  0  0  0  0  0  0  0  0
   64.6345   -6.9773   -7.6434 C   0  0  0  0  0  0  0  0  0  0  0  0
   65.7459   -7.4604   -6.9823 C   0  0  0  0  0  0  0  0  0  0  0  0
   65.7282   -7.6434   -5.6144 C   0  0  0  0  0  0  0  0  0  0  0  0
   64.5712   -7.3309   -4.9288 C   0  0  0  0  0  0  0  0  0  0  0  0
   63.4915   -6.8568   -5.6153 C   0  0  0  0  0  0  0  0  0  0  0  0
  6  7  1  0  0  0
  7  2  1  0  0  0
  2  3  1  0  0  0
  3  4  2  0  0  0
  3  1  1  0  0  0
  1 32  1  0  0  0
 32 33  1  0  0  0
 33 34  2  0  0  0
 34 35  1  0  0  0
 35 36  2  0  0  0
 36 37  1  0  0  0
 37 38  2  0  0  0
  1 18  1  0  0  0
 18 19  1  0  0  0
 19 20  2  0  0  0
 19 22  1  0  0  0
 22 23  2  0  0  0
 23 24  1  0  0  0
 24 25  2  0  0  0
 25 26  1  0  0  0
 26 27  2  0  0  0
 25 28  1  0  0  0
 28 29  1  0  0  0
 28 30  1  0  0  0
 28 31  1  0  0  0
  7  8  1  0  0  0
  8  9  2  0  0  0
  9 10  1  0  0  0
 10 11  2  0  0  0
 11 12  1  0  0  0
 12 13  2  0  0  0
 11 14  1  0  0  0
 14 15  1  0  0  0
 14 16  1  0  0  0
 14 17  1  0  0  0
 38 33  1  0  0  0
 27 22  1  0  0  0
 13  8  1  0  0  0
  2  5  1  0  0  0
 18 21  1  0  0  0
M  END
> <minimizedAffinity>
-4.36417

> <CNNscore>
0.2587788701

> <CNNaffinity>
5.2254586220

> <CNN_VS>
1.3522382975

> <CNNaffinity_variance>
0.3326118886

$$$$
[H]c1c([H])c([H])c(C([H])([H])[C@@]([H])(C(=O)N([H])[C@]([H])(c2c([H])c([H])c(C(F)(F)F)c([H])c2[H])C([H])([H])[H])N([H])C(=O)c2c([H])c([H])c(C(F)(F)F)c([H])c2[H])c([H])c1[H]


 38 40  0  0  0  0  0  0  0  0999 V2000
   55.3111   -4.9703   -8.4990 C   0  0  0  0  0  0  0  0  0  0  0  0
   53.5493   -5.0571   -6.6362 N   0  0  0  0  0  0  0  0  0  0  0  0
   53.9454   -4.8318   -7.9514 C   0  0  0  0  0  0  0  0  0  0  0  0
   53.0645   -4.4653   -8.7961 O   0  0  0  0  0  0  0  0  0  0  0  0
   54.2652   -5.3359   -5.9144 H   0  0  0  0  0  0  0  0  0  0  0  0
   51.2501   -5.4955   -7.1701 C   0  0  0  0  0  0  0  0  0  0  0  0
   52.1959   -4.9351   -6.1552 C   0  0  0  0  0  0  0  0  0  0  0  0
   51.9820   -5.5617   -4.8147 C   0  0  0  0  0  0  0  0  0  0  0  0
   51.5863   -6.9024   -4.7617 C   0  0  0  0  0  0  0  0  0  0  0  0
   51.3504   -7.5797   -3.5868 C   0  0  0  0  0  0  0  0  0  0  0  0
   51.5128   -6.8954   -2.4001 C   0  0  0  0  0  0  0  0  0  0  0  0
   51.8992   -5.5790   -2.4101 C   0  0  0  0  0  0  0  0  0  0  0  0
   52.1362   -4.9052   -3.6238 C   0  0  0  0  0  0  0  0  0  0  0  0
   51.2513   -7.6845   -1.1602 C   0  0  0  0  0  0  0  0  0  0  0  0
   51.2473   -9.0187   -1.5830 F   0  0  0  0  0  0  0  0  0  0  0  0
   52.1313   -7.4470   -0.1533 F   0  0  0  0  0  0  0  0  0  0  0  0
   49.9269   -7.4353   -0.8112 F   0  0  0  0  0  0  0  0  0  0  0  0
   55.4138   -4.7951   -9.9237 N   0  0  0  0  0  0  0  0  0  0  0  0
   56.4844   -4.1163  -10.5595 C   0  0  0  0  0  0  0  0  0  0  0  0
   57.3997   -3.6632   -9.8257 O   0  0  0  0  0  0  0  0  0  0  0  0
   54.6616   -5.1893  -10.5353 H   0  0  0  0  0  0  0  0  0  0  0  0
   56.5772   -3.9203  -11.9878 C   0  0  0  0  0  0  0  0  0  0  0  0
   55.6520   -3.2648  -12.7602 C   0  0  0  0  0  0  0  0  0  0  0  0
   55.8094   -3.1361  -14.1487 C   0  0  0  0  0  0  0  0  0  0  0  0
   56.8989   -3.6671  -14.7595 C   0  0  0  0  0  0  0  0  0  0  0  0
   57.8403   -4.3265  -14.0183 C   0  0  0  0  0  0  0  0  0  0  0  0
   57.6716   -4.4436  -12.6647 C   0  0  0  0  0  0  0  0  0  0  0  0
   57.0369   -3.5315  -16.2458 C   0  0  0  0  0  0  0  0  0  0  0  0
   58.1219   -4.1877  -16.7550 F   0  0  0  0  0  0  0  0  0  0  0  0
   57.2365   -2.1615  -16.4811 F   0  0  0  0  0  0  0  0  0  0  0  0
   55.8708   -3.8985  -16.8651 F   0  0  0  0  0  0  0  0  0  0  0  0
   56.4118   -4.4118   -7.6741 C   0  0  0  0  0  0  0  0  0  0  0  0
   56.4228   -4.9513   -6.2995 C   0  0  0  0  0  0  0  0  0  0  0  0
   56.7603   -6.2943   -6.0906 C   0  0  0  0  0  0  0  0  0  0  0  0
   56.7496   -6.8565   -4.8299 C   0  0  0  0  0  0  0  0  0  0  0  0
   56.4043   -6.1041   -3.7254 C   0  0  0  0  0  0  0  0  0  0  0  0
   56.0709   -4.7781   -3.9172 C   0  0  0  0  0  0  0  0  0  0  0  0
   56.0911   -4.2563   -5.1777 C   0  0  0  0  0  0  0  0  0  0  0  0
  6  7  1  0  0  0
  7  2  1  0  0  0
  2  3  1  0  0  0
  3  4  2  0  0  0
  3  1  1  0  0  0
  1 32  1  0  0  0
 32 33  1  0  0  0
 33 34  2  0  0  0
 34 35  1  0  0  0
 35 36  2  0  0  0
 36 37  1  0  0  0
 37 38  2  0  0  0
  1 18  1  0  0  0
 18 19  1  0  0  0
 19 20  2  0  0  0
 19 22  1  0  0  0
 22 23  2  0  0  0
 23 24  1  0  0  0
 24 25  2  0  0  0
 25 26  1  0  0  0
 26 27  2  0  0  0
 25 28  1  0  0  0
 28 29  1  0  0  0
 28 30  1  0  0  0
 28 31  1  0  0  0
  7  8  1  0  0  0
  8  9  2  0  0  0
  9 10  1  0  0  0
 10 11  2  0  0  0
 11 12  1  0  0  0
 12 13  2  0  0  0
 11 14  1  0  0  0
 14 15  1  0  0  0
 14 16  1  0  0  0
 14 17  1  0  0  0
 38 33  1  0  0  0
 27 22  1  0  0  0
 13  8  1  0  0  0
  2  5  1  0  0  0
 18 21  1  0  0  0
M  END
> <minimizedAffinity>
-4.16191

> <CNNscore>
0.2430634648

> <CNNaffinity>
6.2025251389

> <CNN_VS>
1.5076072216

> <CNNaffinity_variance>
0.2148899734

$$$$
[H]c1c([H])c([H])c(C([H])([H])[C@@]([H])(C(=O)N([H])[C@]([H])(c2c([H])c([H])c(C(F)(F)F)c([H])c2[H])C([H])([H])[H])N([H])C(=O)c2c([H])c([H])c(C(F)(F)F)c([H])c2[H])c([H])c1[H]


 38 40  0  0  0  0  0  0  0  0999 V2000
   58.2462   -6.2568   -6.9003 C   0  0  0  0  0  0  0  0  0  0  0  0
   59.6221   -7.6081   -5.2086 N   0  0  0  0  0  0  0  0  0  0  0  0
   59.4680   -6.9323   -6.4157 C   0  0  0  0  0  0  0  0  0  0  0  0
   60.4634   -6.8726   -7.2090 O   0  0  0  0  0  0  0  0  0  0  0  0
   58.8051   -7.6927   -4.5480 H   0  0  0  0  0  0  0  0  0  0  0  0
   60.6986   -8.6741   -3.3462 C   0  0  0  0  0  0  0  0  0  0  0  0
   60.8459   -8.2289   -4.7670 C   0  0  0  0  0  0  0  0  0  0  0  0
   61.2906   -9.3565   -5.6422 C   0  0  0  0  0  0  0  0  0  0  0  0
   62.4657   -9.1997   -6.3849 C   0  0  0  0  0  0  0  0  0  0  0  0
   62.9653  -10.1643   -7.2303 C   0  0  0  0  0  0  0  0  0  0  0  0
   62.2659  -11.3472   -7.3496 C   0  0  0  0  0  0  0  0  0  0  0  0
   61.1085  -11.5392   -6.6384 C   0  0  0  0  0  0  0  0  0  0  0  0
   60.6154  -10.5391   -5.7782 C   0  0  0  0  0  0  0  0  0  0  0  0
   62.8611  -12.3574   -8.2736 C   0  0  0  0  0  0  0  0  0  0  0  0
   63.9989  -12.8231   -7.6048 F   0  0  0  0  0  0  0  0  0  0  0  0
   62.0096  -13.3525   -8.6335 F   0  0  0  0  0  0  0  0  0  0  0  0
   63.3714  -11.6443   -9.3549 F   0  0  0  0  0  0  0  0  0  0  0  0
   57.2805   -5.9449   -5.8799 N   0  0  0  0  0  0  0  0  0  0  0  0
   55.9774   -6.5024   -5.8306 C   0  0  0  0  0  0  0  0  0  0  0  0
   55.6678   -7.3303   -6.7250 O   0  0  0  0  0  0  0  0  0  0  0  0
   57.5455   -5.2706   -5.1247 H   0  0  0  0  0  0  0  0  0  0  0  0
   54.9994   -6.1729   -4.8195 C   0  0  0  0  0  0  0  0  0  0  0  0
   55.2796   -5.8968   -3.5052 C   0  0  0  0  0  0  0  0  0  0  0  0
   54.2649   -5.6051   -2.5808 C   0  0  0  0  0  0  0  0  0  0  0  0
   52.9678   -5.5909   -2.9801 C   0  0  0  0  0  0  0  0  0  0  0  0
   52.6544   -5.8615   -4.2836 C   0  0  0  0  0  0  0  0  0  0  0  0
   53.6563   -6.1446   -5.1727 C   0  0  0  0  0  0  0  0  0  0  0  0
   51.9002   -5.2932   -1.9711 C   0  0  0  0  0  0  0  0  0  0  0  0
   50.8475   -4.5881   -2.4828 F   0  0  0  0  0  0  0  0  0  0  0  0
   52.5123   -4.4768   -1.0062 F   0  0  0  0  0  0  0  0  0  0  0  0
   51.4992   -6.4476   -1.3512 F   0  0  0  0  0  0  0  0  0  0  0  0
   58.4315   -5.2519   -7.9772 C   0  0  0  0  0  0  0  0  0  0  0  0
   57.1519   -4.7070   -8.4734 C   0  0  0  0  0  0  0  0  0  0  0  0
   56.7983   -4.8960   -9.8152 C   0  0  0  0  0  0  0  0  0  0  0  0
   55.6313   -4.3752  -10.3373 C   0  0  0  0  0  0  0  0  0  0  0  0
   54.7678   -3.6467   -9.5443 C   0  0  0  0  0  0  0  0  0  0  0  0
   55.1037   -3.4542   -8.2191 C   0  0  0  0  0  0  0  0  0  0  0  0
   56.2659   -3.9825   -7.7376 C   0  0  0  0  0  0  0  0  0  0  0  0
  6  7  1  0  0  0
  7  2  1  0  0  0
  2  3  1  0  0  0
  3  4  2  0  0  0
  3  1  1  0  0  0
  1 32  1  0  0  0
 32 33  1  0  0  0
 33 34  2  0  0  0
 34 35  1  0  0  0
 35 36  2  0  0  0
 36 37  1  0  0  0
 37 38  2  0  0  0
  1 18  1  0  0  0
 18 19  1  0  0  0
 19 20  2  0  0  0
 19 22  1  0  0  0
 22 23  2  0  0  0
 23 24  1  0  0  0
 24 25  2  0  0  0
 25 26  1  0  0  0
 26 27  2  0  0  0
 25 28  1  0  0  0
 28 29  1  0  0  0
 28 30  1  0  0  0
 28 31  1  0  0  0
  7  8  1  0  0  0
  8  9  2  0  0  0
  9 10  1  0  0  0
 10 11  2  0  0  0
 11 12  1  0  0  0
 12 13  2  0  0  0
 11 14  1  0  0  0
 14 15  1  0  0  0
 14 16  1  0  0  0
 14 17  1  0  0  0
 38 33  1  0  0  0
 27 22  1  0  0  0
 13  8  1  0  0  0
  2  5  1  0  0  0
 18 21  1  0  0  0
M  END
> <minimizedAffinity>
-2.17693

> <CNNscore>
0.2391005754

> <CNNaffinity>
5.5715246201

> <CNN_VS>
1.3321547508

> <CNNaffinity_variance>
0.7195771337

$$$$
[H]c1c([H])c([H])c(C([H])([H])[C@@]([H])(C(=O)N([H])[C@]([H])(c2c([H])c([H])c(C(F)(F)F)c([H])c2[H])C([H])([H])[H])N([H])C(=O)c2c([H])c([H])c(C(F)(F)F)c([H])c2[H])c([H])c1[H]


 38 40  0  0  0  0  0  0  0  0999 V2000
   54.4321   -5.1508   -7.5312 C   0  0  0  0  0  0  0  0  0  0  0  0
   56.4437   -5.0107   -9.1171 N   0  0  0  0  0  0  0  0  0  0  0  0
   55.0831   -4.9194   -8.8375 C   0  0  0  0  0  0  0  0  0  0  0  0
   54.2888   -4.6079   -9.7840 O   0  0  0  0  0  0  0  0  0  0  0  0
   57.1167   -5.2921   -8.3562 H   0  0  0  0  0  0  0  0  0  0  0  0
   56.9051   -3.2931  -10.7297 C   0  0  0  0  0  0  0  0  0  0  0  0
   57.0354   -4.7478  -10.4050 C   0  0  0  0  0  0  0  0  0  0  0  0
   58.4571   -5.1985  -10.5099 C   0  0  0  0  0  0  0  0  0  0  0  0
   58.9958   -5.9525   -9.4619 C   0  0  0  0  0  0  0  0  0  0  0  0
   60.2931   -6.4123   -9.4446 C   0  0  0  0  0  0  0  0  0  0  0  0
   61.1025   -6.1099  -10.5199 C   0  0  0  0  0  0  0  0  0  0  0  0
   60.6115   -5.3720  -11.5671 C   0  0  0  0  0  0  0  0  0  0  0  0
   59.2805   -4.9122  -11.5649 C   0  0  0  0  0  0  0  0  0  0  0  0
   62.4952   -6.6428  -10.4481 C   0  0  0  0  0  0  0  0  0  0  0  0
   62.3570   -8.0229  -10.6354 F   0  0  0  0  0  0  0  0  0  0  0  0
   63.3567   -6.0691  -11.3274 F   0  0  0  0  0  0  0  0  0  0  0  0
   62.8923   -6.5189   -9.1196 F   0  0  0  0  0  0  0  0  0  0  0  0
   55.1968   -5.9429   -6.6044 N   0  0  0  0  0  0  0  0  0  0  0  0
   54.8318   -6.1414   -5.2485 C   0  0  0  0  0  0  0  0  0  0  0  0
   53.7662   -5.6048   -4.8513 O   0  0  0  0  0  0  0  0  0  0  0  0
   56.0734   -6.4053   -6.9407 H   0  0  0  0  0  0  0  0  0  0  0  0
   55.6105   -6.9179   -4.3114 C   0  0  0  0  0  0  0  0  0  0  0  0
   55.0968   -7.7821   -3.3779 C   0  0  0  0  0  0  0  0  0  0  0  0
   55.9251   -8.4845   -2.4892 C   0  0  0  0  0  0  0  0  0  0  0  0
   57.2710   -8.3170   -2.5409 C   0  0  0  0  0  0  0  0  0  0  0  0
   57.8153   -7.4631   -3.4601 C   0  0  0  0  0  0  0  0  0  0  0  0
   56.9932   -6.7851   -4.3197 C   0  0  0  0  0  0  0  0  0  0  0  0
   58.1341   -9.0652   -1.5704 C   0  0  0  0  0  0  0  0  0  0  0  0
   57.4501   -9.5437   -0.4886 F   0  0  0  0  0  0  0  0  0  0  0  0
   59.0601   -8.1254   -1.0892 F   0  0  0  0  0  0  0  0  0  0  0  0
   58.8331  -10.0492   -2.2192 F   0  0  0  0  0  0  0  0  0  0  0  0
   53.6654   -4.0122   -6.9659 C   0  0  0  0  0  0  0  0  0  0  0  0
   52.2053   -4.2254   -7.0224 C   0  0  0  0  0  0  0  0  0  0  0  0
   51.3658   -3.1530   -7.3488 C   0  0  0  0  0  0  0  0  0  0  0  0
   49.9926   -3.2908   -7.3790 C   0  0  0  0  0  0  0  0  0  0  0  0
   49.3992   -4.5024   -7.0872 C   0  0  0  0  0  0  0  0  0  0  0  0
   50.2154   -5.5684   -6.7653 C   0  0  0  0  0  0  0  0  0  0  0  0
   51.5686   -5.3953   -6.7442 C   0  0  0  0  0  0  0  0  0  0  0  0
  6  7  1  0  0  0
  7  2  1  0  0  0
  2  3  1  0  0  0
  3  4  2  0  0  0
  3  1  1  0  0  0
  1 32  1  0  0  0
 32 33  1  0  0  0
 33 34  2  0  0  0
 34 35  1  0  0  0
 35 36  2  0  0  0
 36 37  1  0  0  0
 37 38  2  0  0  0
  1 18  1  0  0  0
 18 19  1  0  0  0
 19 20  2  0  0  0
 19 22  1  0  0  0
 22 23  2  0  0  0
 23 24  1  0  0  0
 24 25  2  0  0  0
 25 26  1  0  0  0
 26 27  2  0  0  0
 25 28  1  0  0  0
 28 29  1  0  0  0
 28 30  1  0  0  0
 28 31  1  0  0  0
  7  8  1  0  0  0
  8  9  2  0  0  0
  9 10  1  0  0  0
 10 11  2  0  0  0
 11 12  1  0  0  0
 12 13  2  0  0  0
 11 14  1  0  0  0
 14 15  1  0  0  0
 14 16  1  0  0  0
 14 17  1  0  0  0
 38 33  1  0  0  0
 27 22  1  0  0  0
 13  8  1  0  0  0
  2  5  1  0  0  0
 18 21  1  0  0  0
M  END
> <minimizedAffinity>
-5.42123

> <CNNscore>
0.2382949889

> <CNNaffinity>
6.3355712891

> <CNN_VS>
1.5097348690

> <CNNaffinity_variance>
0.4737951159

$$$$
[H]c1c([H])c([H])c(C([H])([H])[C@@]([H])(C(=O)N([H])[C@]([H])(c2c([H])c([H])c(C(F)(F)F)c([H])c2[H])C([H])([H])[H])N([H])C(=O)c2c([H])c([H])c(C(F)(F)F)c([H])c2[H])c([H])c1[H]


 38 40  0  0  0  0  0  0  0  0999 V2000
   57.1420   -4.1662  -10.0015 C   0  0  0  0  0  0  0  0  0  0  0  0
   55.7337   -5.0385   -8.0427 N   0  0  0  0  0  0  0  0  0  0  0  0
   55.9432   -4.7814   -9.3946 C   0  0  0  0  0  0  0  0  0  0  0  0
   55.0256   -5.0952  -10.2212 O   0  0  0  0  0  0  0  0  0  0  0  0
   56.4677   -4.7640   -7.3377 H   0  0  0  0  0  0  0  0  0  0  0  0
   54.8731   -6.2622   -6.1651 C   0  0  0  0  0  0  0  0  0  0  0  0
   54.5554   -5.6677   -7.5009 C   0  0  0  0  0  0  0  0  0  0  0  0
   53.3768   -4.7517   -7.4169 C   0  0  0  0  0  0  0  0  0  0  0  0
   52.3577   -5.0590   -6.5092 C   0  0  0  0  0  0  0  0  0  0  0  0
   51.2230   -4.2956   -6.3528 C   0  0  0  0  0  0  0  0  0  0  0  0
   51.0868   -3.1685   -7.1363 C   0  0  0  0  0  0  0  0  0  0  0  0
   52.0641   -2.8335   -8.0390 C   0  0  0  0  0  0  0  0  0  0  0  0
   53.2178   -3.6284   -8.1823 C   0  0  0  0  0  0  0  0  0  0  0  0
   49.8405   -2.3770   -6.9156 C   0  0  0  0  0  0  0  0  0  0  0  0
   48.8856   -2.9812   -7.7414 F   0  0  0  0  0  0  0  0  0  0  0  0
   49.4512   -2.3025   -5.6165 F   0  0  0  0  0  0  0  0  0  0  0  0
   50.0587   -1.1337   -7.5027 F   0  0  0  0  0  0  0  0  0  0  0  0
   58.1919   -5.0901  -10.3408 N   0  0  0  0  0  0  0  0  0  0  0  0
   59.1144   -5.6154   -9.4004 C   0  0  0  0  0  0  0  0  0  0  0  0
   58.9841   -5.2601   -8.2012 O   0  0  0  0  0  0  0  0  0  0  0  0
   58.2878   -5.4005  -11.3357 H   0  0  0  0  0  0  0  0  0  0  0  0
   60.1826   -6.5255   -9.7438 C   0  0  0  0  0  0  0  0  0  0  0  0
   60.2567   -7.8413   -9.3627 C   0  0  0  0  0  0  0  0  0  0  0  0
   61.3430   -8.6531   -9.7235 C   0  0  0  0  0  0  0  0  0  0  0  0
   62.3546   -8.1399  -10.4688 C   0  0  0  0  0  0  0  0  0  0  0  0
   62.3112   -6.8318  -10.8655 C   0  0  0  0  0  0  0  0  0  0  0  0
   61.2445   -6.0532  -10.5047 C   0  0  0  0  0  0  0  0  0  0  0  0
   63.5123   -9.0217  -10.8278 C   0  0  0  0  0  0  0  0  0  0  0  0
   64.7224   -8.5165  -10.4435 F   0  0  0  0  0  0  0  0  0  0  0  0
   63.5180   -9.0815  -12.2308 F   0  0  0  0  0  0  0  0  0  0  0  0
   63.3056  -10.2908  -10.3542 F   0  0  0  0  0  0  0  0  0  0  0  0
   56.9016   -3.0481  -10.9481 C   0  0  0  0  0  0  0  0  0  0  0  0
   57.1672   -3.4234  -12.3513 C   0  0  0  0  0  0  0  0  0  0  0  0
   58.4802   -3.3837  -12.8370 C   0  0  0  0  0  0  0  0  0  0  0  0
   58.7766   -3.6892  -14.1502 C   0  0  0  0  0  0  0  0  0  0  0  0
   57.7782   -4.0486  -15.0329 C   0  0  0  0  0  0  0  0  0  0  0  0
   56.4794   -4.0933  -14.5666 C   0  0  0  0  0  0  0  0  0  0  0  0
   56.2234   -3.7837  -13.2627 C   0  0  0  0  0  0  0  0  0  0  0  0
  6  7  1  0  0  0
  7  2  1  0  0  0
  2  3  1  0  0  0
  3  4  2  0  0  0
  3  1  1  0  0  0
  1 32  1  0  0  0
 32 33  1  0  0  0
 33 34  2  0  0  0
 34 35  1  0  0  0
 35 36  2  0  0  0
 36 37  1  0  0  0
 37 38  2  0  0  0
  1 18  1  0  0  0
 18 19  1  0  0  0
 19 20  2  0  0  0
 19 22  1  0  0  0
 22 23  2  0  0  0
 23 24  1  0  0  0
 24 25  2  0  0  0
 25 26  1  0  0  0
 26 27  2  0  0  0
 25 28  1  0  0  0
 28 29  1  0  0  0
 28 30  1  0  0  0
 28 31  1  0  0  0
  7  8  1  0  0  0
  8  9  2  0  0  0
  9 10  1  0  0  0
 10 11  2  0  0  0
 11 12  1  0  0  0
 12 13  2  0  0  0
 11 14  1  0  0  0
 14 15  1  0  0  0
 14 16  1  0  0  0
 14 17  1  0  0  0
 38 33  1  0  0  0
 27 22  1  0  0  0
 13  8  1  0  0  0
  2  5  1  0  0  0
 18 21  1  0  0  0
M  END
> <minimizedAffinity>
-7.19185

> <CNNscore>
0.1666440815

> <CNNaffinity>
5.9541091919

> <CNN_VS>
0.9922170639

> <CNNaffinity_variance>
0.1514335275

$$$$
[H]c1c([H])c([H])c(C([H])([H])[C@@]([H])(C(=O)N([H])[C@]([H])(c2c([H])c([H])c(C(F)(F)F)c([H])c2[H])C([H])([H])[H])N([H])C(=O)c2c([H])c([H])c(C(F)(F)F)c([H])c2[H])c([H])c1[H]


 38 40  0  0  0  0  0  0  0  0999 V2000
   54.9349   -3.9424   -9.1783 C   0  0  0  0  0  0  0  0  0  0  0  0
   55.7507   -5.1847   -7.0873 N   0  0  0  0  0  0  0  0  0  0  0  0
   55.8062   -4.8845   -8.4454 C   0  0  0  0  0  0  0  0  0  0  0  0
   56.6867   -5.4660   -9.1598 O   0  0  0  0  0  0  0  0  0  0  0  0
   55.0141   -4.7356   -6.4816 H   0  0  0  0  0  0  0  0  0  0  0  0
   58.0485   -5.8416   -6.8591 C   0  0  0  0  0  0  0  0  0  0  0  0
   56.6432   -6.0926   -6.4113 C   0  0  0  0  0  0  0  0  0  0  0  0
   56.5337   -6.0357   -4.9213 C   0  0  0  0  0  0  0  0  0  0  0  0
   57.2324   -6.9830   -4.1654 C   0  0  0  0  0  0  0  0  0  0  0  0
   57.1983   -7.0337   -2.7902 C   0  0  0  0  0  0  0  0  0  0  0  0
   56.4315   -6.0991   -2.1258 C   0  0  0  0  0  0  0  0  0  0  0  0
   55.7307   -5.1540   -2.8314 C   0  0  0  0  0  0  0  0  0  0  0  0
   55.7804   -5.1195   -4.2384 C   0  0  0  0  0  0  0  0  0  0  0  0
   56.4410   -6.1991   -0.6364 C   0  0  0  0  0  0  0  0  0  0  0  0
   56.0819   -4.9213   -0.1926 F   0  0  0  0  0  0  0  0  0  0  0  0
   55.6434   -7.1797   -0.1392 F   0  0  0  0  0  0  0  0  0  0  0  0
   57.7759   -6.3254   -0.2623 F   0  0  0  0  0  0  0  0  0  0  0  0
   53.7725   -3.5020   -8.4530 N   0  0  0  0  0  0  0  0  0  0  0  0
   52.8126   -4.3825   -7.8923 C   0  0  0  0  0  0  0  0  0  0  0  0
   53.0108   -5.6169   -8.0273 O   0  0  0  0  0  0  0  0  0  0  0  0
   53.6183   -2.4749   -8.3242 H   0  0  0  0  0  0  0  0  0  0  0  0
   51.6337   -3.9411   -7.1833 C   0  0  0  0  0  0  0  0  0  0  0  0
   50.9186   -2.8044   -7.4640 C   0  0  0  0  0  0  0  0  0  0  0  0
   49.7932   -2.4368   -6.7106 C   0  0  0  0  0  0  0  0  0  0  0  0
   49.3875   -3.2143   -5.6747 C   0  0  0  0  0  0  0  0  0  0  0  0
   50.0781   -4.3544   -5.3688 C   0  0  0  0  0  0  0  0  0  0  0  0
   51.1742   -4.6986   -6.1134 C   0  0  0  0  0  0  0  0  0  0  0  0
   48.1926   -2.7924   -4.8741 C   0  0  0  0  0  0  0  0  0  0  0  0
   47.0498   -2.6845   -5.6153 F   0  0  0  0  0  0  0  0  0  0  0  0
   48.4958   -1.5075   -4.3955 F   0  0  0  0  0  0  0  0  0  0  0  0
   48.0330   -3.6170   -3.7913 F   0  0  0  0  0  0  0  0  0  0  0  0
   55.6199   -2.9322  -10.0234 C   0  0  0  0  0  0  0  0  0  0  0  0
   56.2232   -3.5198  -11.2363 C   0  0  0  0  0  0  0  0  0  0  0  0
   57.5984   -3.3765  -11.4589 C   0  0  0  0  0  0  0  0  0  0  0  0
   58.2045   -3.8748  -12.5947 C   0  0  0  0  0  0  0  0  0  0  0  0
   57.4664   -4.5378  -13.5543 C   0  0  0  0  0  0  0  0  0  0  0  0
   56.1097   -4.6874  -13.3466 C   0  0  0  0  0  0  0  0  0  0  0  0
   55.5444   -4.1808  -12.2128 C   0  0  0  0  0  0  0  0  0  0  0  0
  6  7  1  0  0  0
  7  2  1  0  0  0
  2  3  1  0  0  0
  3  4  2  0  0  0
  3  1  1  0  0  0
  1 32  1  0  0  0
 32 33  1  0  0  0
 33 34  2  0  0  0
 34 35  1  0  0  0
 35 36  2  0  0  0
 36 37  1  0  0  0
 37 38  2  0  0  0
  1 18  1  0  0  0
 18 19  1  0  0  0
 19 20  2  0  0  0
 19 22  1  0  0  0
 22 23  2  0  0  0
 23 24  1  0  0  0
 24 25  2  0  0  0
 25 26  1  0  0  0
 26 27  2  0  0  0
 25 28  1  0  0  0
 28 29  1  0  0  0
 28 30  1  0  0  0
 28 31  1  0  0  0
  7  8  1  0  0  0
  8  9  2  0  0  0
  9 10  1  0  0  0
 10 11  2  0  0  0
 11 12  1  0  0  0
 12 13  2  0  0  0
 11 14  1  0  0  0
 14 15  1  0  0  0
 14 16  1  0  0  0
 14 17  1  0  0  0
 38 33  1  0  0  0
 27 22  1  0  0  0
 13  8  1  0  0  0
  2  5  1  0  0  0
 18 21  1  0  0  0
M  END
> <minimizedAffinity>
-7.01703

> <CNNscore>
0.1535335034

> <CNNaffinity>
6.3985586166

> <CNN_VS>
0.9823931456

> <CNNaffinity_variance>
0.3520696759

$$$$
[H]c1c([H])c([H])c(C([H])([H])[C@@]([H])(C(=O)N([H])[C@]([H])(c2c([H])c([H])c(C(F)(F)F)c([H])c2[H])C([H])([H])[H])N([H])C(=O)c2c([H])c([H])c(C(F)(F)F)c([H])c2[H])c([H])c1[H]


 38 40  0  0  0  0  0  0  0  0999 V2000
   57.3999   -5.2259   -8.6515 C   0  0  0  0  0  0  0  0  0  0  0  0
   59.3587   -6.5763   -9.6111 N   0  0  0  0  0  0  0  0  0  0  0  0
   58.8169   -5.6366   -8.7388 C   0  0  0  0  0  0  0  0  0  0  0  0
   59.5960   -5.0498   -7.9188 O   0  0  0  0  0  0  0  0  0  0  0  0
   58.7381   -7.0555  -10.3156 H   0  0  0  0  0  0  0  0  0  0  0  0
   60.8561   -8.4490   -9.4916 C   0  0  0  0  0  0  0  0  0  0  0  0
   60.7468   -6.9642   -9.6392 C   0  0  0  0  0  0  0  0  0  0  0  0
   61.4731   -6.4883  -10.8563 C   0  0  0  0  0  0  0  0  0  0  0  0
   60.9126   -5.4452  -11.6011 C   0  0  0  0  0  0  0  0  0  0  0  0
   61.4856   -4.9329  -12.7430 C   0  0  0  0  0  0  0  0  0  0  0  0
   62.6759   -5.4814  -13.1733 C   0  0  0  0  0  0  0  0  0  0  0  0
   63.2571   -6.5064  -12.4707 C   0  0  0  0  0  0  0  0  0  0  0  0
   62.6541   -7.0151  -11.3041 C   0  0  0  0  0  0  0  0  0  0  0  0
   63.2527   -4.8789  -14.4114 C   0  0  0  0  0  0  0  0  0  0  0  0
   64.5400   -5.4204  -14.5029 F   0  0  0  0  0  0  0  0  0  0  0  0
   62.5080   -5.0827  -15.5288 F   0  0  0  0  0  0  0  0  0  0  0  0
   63.4701   -3.5338  -14.1260 F   0  0  0  0  0  0  0  0  0  0  0  0
   56.8961   -5.0665   -7.3129 N   0  0  0  0  0  0  0  0  0  0  0  0
   55.7928   -5.7910   -6.7942 C   0  0  0  0  0  0  0  0  0  0  0  0
   55.2445   -6.6316   -7.5519 O   0  0  0  0  0  0  0  0  0  0  0  0
   57.3651   -4.3808   -6.6764 H   0  0  0  0  0  0  0  0  0  0  0  0
   55.2722   -5.6158   -5.4580 C   0  0  0  0  0  0  0  0  0  0  0  0
   55.9958   -5.1845   -4.3751 C   0  0  0  0  0  0  0  0  0  0  0  0
   55.4160   -5.0608   -3.1032 C   0  0  0  0  0  0  0  0  0  0  0  0
   54.1072   -5.3709   -2.9218 C   0  0  0  0  0  0  0  0  0  0  0  0
   53.3576   -5.8035   -3.9807 C   0  0  0  0  0  0  0  0  0  0  0  0
   53.9385   -5.9191   -5.2150 C   0  0  0  0  0  0  0  0  0  0  0  0
   53.5144   -5.2469   -1.5507 C   0  0  0  0  0  0  0  0  0  0  0  0
   52.4214   -4.4283   -1.5010 F   0  0  0  0  0  0  0  0  0  0  0  0
   54.5119   -4.6500   -0.7627 F   0  0  0  0  0  0  0  0  0  0  0  0
   53.2567   -6.4889   -1.0321 F   0  0  0  0  0  0  0  0  0  0  0  0
   56.9344   -4.2449   -9.6639 C   0  0  0  0  0  0  0  0  0  0  0  0
   55.5566   -3.7774   -9.4116 C   0  0  0  0  0  0  0  0  0  0  0  0
   54.4864   -4.4128  -10.0536 C   0  0  0  0  0  0  0  0  0  0  0  0
   53.1836   -3.9906   -9.8805 C   0  0  0  0  0  0  0  0  0  0  0  0
   52.8928   -2.9198   -9.0596 C   0  0  0  0  0  0  0  0  0  0  0  0
   53.9385   -2.2851   -8.4193 C   0  0  0  0  0  0  0  0  0  0  0  0
   55.2138   -2.7290   -8.6149 C   0  0  0  0  0  0  0  0  0  0  0  0
  6  7  1  0  0  0
  7  2  1  0  0  0
  2  3  1  0  0  0
  3  4  2  0  0  0
  3  1  1  0  0  0
  1 32  1  0  0  0
 32 33  1  0  0  0
 33 34  2  0  0  0
 34 35  1  0  0  0
 35 36  2  0  0  0
 36 37  1  0  0  0
 37 38  2  0  0  0
  1 18  1  0  0  0
 18 19  1  0  0  0
 19 20  2  0  0  0
 19 22  1  0  0  0
 22 23  2  0  0  0
 23 24  1  0  0  0
 24 25  2  0  0  0
 25 26  1  0  0  0
 26 27  2  0  0  0
 25 28  1  0  0  0
 28 29  1  0  0  0
 28 30  1  0  0  0
 28 31  1  0  0  0
  7  8  1  0  0  0
  8  9  2  0  0  0
  9 10  1  0  0  0
 10 11  2  0  0  0
 11 12  1  0  0  0
 12 13  2  0  0  0
 11 14  1  0  0  0
 14 15  1  0  0  0
 14 16  1  0  0  0
 14 17  1  0  0  0
 38 33  1  0  0  0
 27 22  1  0  0  0
 13  8  1  0  0  0
  2  5  1  0  0  0
 18 21  1  0  0  0
M  END
> <minimizedAffinity>
-4.65776

> <CNNscore>
0.1478459090

> <CNNaffinity>
5.6052412987

> <CNN_VS>
0.8287119865

> <CNNaffinity_variance>
0.3490361571

$$$$
[H]c1c([H])c([H])c(C([H])([H])[C@@]([H])(C(=O)N([H])[C@]([H])(c2c([H])c([H])c(C(F)(F)F)c([H])c2[H])C([H])([H])[H])N([H])C(=O)c2c([H])c([H])c(C(F)(F)F)c([H])c2[H])c([H])c1[H]


 38 40  0  0  0  0  0  0  0  0999 V2000
   56.5544   -5.7768   -5.9967 C   0  0  0  0  0  0  0  0  0  0  0  0
   57.2947   -4.9875   -8.3227 N   0  0  0  0  0  0  0  0  0  0  0  0
   57.5109   -5.6462   -7.1156 C   0  0  0  0  0  0  0  0  0  0  0  0
   58.6404   -6.2037   -6.9224 O   0  0  0  0  0  0  0  0  0  0  0  0
   56.3776   -4.4971   -8.4944 H   0  0  0  0  0  0  0  0  0  0  0  0
   59.0364   -6.1835   -9.4628 C   0  0  0  0  0  0  0  0  0  0  0  0
   58.2519   -4.9111   -9.3978 C   0  0  0  0  0  0  0  0  0  0  0  0
   57.6357   -4.5892  -10.7214 C   0  0  0  0  0  0  0  0  0  0  0  0
   58.4813   -4.3713  -11.8143 C   0  0  0  0  0  0  0  0  0  0  0  0
   58.0279   -4.0587  -13.0759 C   0  0  0  0  0  0  0  0  0  0  0  0
   56.6659   -3.9545  -13.2682 C   0  0  0  0  0  0  0  0  0  0  0  0
   55.8036   -4.1603  -12.2211 C   0  0  0  0  0  0  0  0  0  0  0  0
   56.2889   -4.4800  -10.9383 C   0  0  0  0  0  0  0  0  0  0  0  0
   56.2349   -3.6222  -14.6582 C   0  0  0  0  0  0  0  0  0  0  0  0
   55.2144   -2.6781  -14.4971 F   0  0  0  0  0  0  0  0  0  0  0  0
   57.2391   -3.1895  -15.4639 F   0  0  0  0  0  0  0  0  0  0  0  0
   55.5796   -4.7504  -15.1438 F   0  0  0  0  0  0  0  0  0  0  0  0
   55.3492   -5.0026   -6.1357 N   0  0  0  0  0  0  0  0  0  0  0  0
   54.1424   -5.5129   -6.6782 C   0  0  0  0  0  0  0  0  0  0  0  0
   54.1329   -6.7182   -7.0365 O   0  0  0  0  0  0  0  0  0  0  0  0
   55.3520   -4.0050   -5.8193 H   0  0  0  0  0  0  0  0  0  0  0  0
   52.9386   -4.7303   -6.8389 C   0  0  0  0  0  0  0  0  0  0  0  0
   52.7501   -3.7494   -7.7793 C   0  0  0  0  0  0  0  0  0  0  0  0
   51.5532   -3.0205   -7.8543 C   0  0  0  0  0  0  0  0  0  0  0  0
   50.5459   -3.2798   -6.9824 C   0  0  0  0  0  0  0  0  0  0  0  0
   50.7016   -4.2517   -6.0329 C   0  0  0  0  0  0  0  0  0  0  0  0
   51.8756   -4.9534   -5.9729 C   0  0  0  0  0  0  0  0  0  0  0  0
   49.2834   -2.4768   -7.0712 C   0  0  0  0  0  0  0  0  0  0  0  0
   48.5186   -2.5363   -5.9404 F   0  0  0  0  0  0  0  0  0  0  0  0
   48.5363   -3.0646   -8.1049 F   0  0  0  0  0  0  0  0  0  0  0  0
   49.5671   -1.1875   -7.4387 F   0  0  0  0  0  0  0  0  0  0  0  0
   56.4166   -7.1299   -5.4017 C   0  0  0  0  0  0  0  0  0  0  0  0
   56.0626   -7.0880   -3.9687 C   0  0  0  0  0  0  0  0  0  0  0  0
   55.0074   -7.8791   -3.4977 C   0  0  0  0  0  0  0  0  0  0  0  0
   54.6130   -7.8485   -2.1751 C   0  0  0  0  0  0  0  0  0  0  0  0
   55.2544   -7.0304   -1.2671 C   0  0  0  0  0  0  0  0  0  0  0  0
   56.2975   -6.2462   -1.7180 C   0  0  0  0  0  0  0  0  0  0  0  0
   56.6592   -6.3014   -3.0325 C   0  0  0  0  0  0  0  0  0  0  0  0
  6  7  1  0  0  0
  7  2  1  0  0  0
  2  3  1  0  0  0
  3  4  2  0  0  0
  3  1  1  0  0  0
  1 32  1  0  0  0
 32 33  1  0  0  0
 33 34  2  0  0  0
 34 35  1  0  0  0
 35 36  2  0  0  0
 36 37  1  0  0  0
 37 38  2  0  0  0
  1 18  1  0  0  0
 18 19  1  0  0  0
 19 20  2  0  0  0
 19 22  1  0  0  0
 22 23  2  0  0  0
 23 24  1  0  0  0
 24 25  2  0  0  0
 25 26  1  0  0  0
 26 27  2  0  0  0
 25 28  1  0  0  0
 28 29  1  0  0  0
 28 30  1  0  0  0
 28 31  1  0  0  0
  7  8  1  0  0  0
  8  9  2  0  0  0
  9 10  1  0  0  0
 10 11  2  0  0  0
 11 12  1  0  0  0
 12 13  2  0  0  0
 11 14  1  0  0  0
 14 15  1  0  0  0
 14 16  1  0  0  0
 14 17  1  0  0  0
 38 33  1  0  0  0
 27 22  1  0  0  0
 13  8  1  0  0  0
  2  5  1  0  0  0
 18 21  1  0  0  0
M  END
> <minimizedAffinity>
-8.06931

> <CNNscore>
0.1431029886

> <CNNaffinity>
6.1391801834

> <CNN_VS>
0.8785350323

> <CNNaffinity_variance>
0.1443207562

$$$$
[H]c1nc(N([H])[H])c(C(F)(F)F)nc1-c1c([H])c([H])c(S(=O)(=O)N([H])[C@]([H])(c2c([H])c([H])c([H])c([H])c2[H])C([H])(C([H])([H])[H])C([H])([H])[H])c([H])c1[H]


 34 36  0  0  0  0  0  0  0  0999 V2000
   58.4176   -5.5452   -9.4196 C   0  0  0  0  0  0  0  0  0  0  0  0
   57.8608   -5.4608   -8.1374 C   0  0  0  0  0  0  0  0  0  0  0  0
   56.6182   -4.9263   -7.9303 C   0  0  0  0  0  0  0  0  0  0  0  0
   55.8451   -4.4425   -8.9611 C   0  0  0  0  0  0  0  0  0  0  0  0
   56.3746   -4.5162  -10.2390 C   0  0  0  0  0  0  0  0  0  0  0  0
   57.6328   -5.0581  -10.4356 C   0  0  0  0  0  0  0  0  0  0  0  0
   54.5131   -3.8673   -8.6901 C   0  0  0  0  0  0  0  0  0  0  0  0
   54.0546   -2.6979   -9.2073 C   0  0  0  0  0  0  0  0  0  0  0  0
   52.8044   -2.2256   -8.9121 N   0  0  0  0  0  0  0  0  0  0  0  0
   52.0020   -2.9526   -8.0762 C   0  0  0  0  0  0  0  0  0  0  0  0
   50.6958   -2.4833   -7.7546 N   0  0  0  0  0  0  0  0  0  0  0  0
   52.4705   -4.1392   -7.5530 C   0  0  0  0  0  0  0  0  0  0  0  0
   53.6945   -4.5669   -7.8638 N   0  0  0  0  0  0  0  0  0  0  0  0
   50.5772   -1.7197   -7.0443 H   0  0  0  0  0  0  0  0  0  0  0  0
   49.8180   -2.8580   -8.1928 H   0  0  0  0  0  0  0  0  0  0  0  0
   51.6313   -4.9609   -6.6440 C   0  0  0  0  0  0  0  0  0  0  0  0
   51.2669   -4.1993   -5.5588 F   0  0  0  0  0  0  0  0  0  0  0  0
   50.5366   -5.4867   -7.3022 F   0  0  0  0  0  0  0  0  0  0  0  0
   52.3650   -6.0506   -6.1755 F   0  0  0  0  0  0  0  0  0  0  0  0
   59.9992   -6.2221   -9.6871 S   0  0  0  0  0  0  0  0  0  0  0  0
   59.8633   -7.7155   -9.9887 O   0  0  0  0  0  0  0  0  0  0  0  0
   60.5055   -5.6003  -11.0013 O   0  0  0  0  0  0  0  0  0  0  0  0
   61.1332   -5.9701   -8.4654 N   0  0  0  0  0  0  0  0  0  0  0  0
   60.7255   -5.4370   -7.6633 H   0  0  0  0  0  0  0  0  0  0  0  0
   61.9965   -7.0347   -8.1008 C   0  0  0  0  0  0  0  0  0  0  0  0
   63.0385   -6.5384   -7.1737 C   0  0  0  0  0  0  0  0  0  0  0  0
   63.3433   -7.1082   -5.9701 C   0  0  0  0  0  0  0  0  0  0  0  0
   64.2996   -6.6418   -5.0772 C   0  0  0  0  0  0  0  0  0  0  0  0
   65.0187   -5.5158   -5.3982 C   0  0  0  0  0  0  0  0  0  0  0  0
   64.7404   -4.9182   -6.5960 C   0  0  0  0  0  0  0  0  0  0  0  0
   63.7942   -5.3842   -7.4727 C   0  0  0  0  0  0  0  0  0  0  0  0
   63.5288   -8.8504   -8.9580 C   0  0  0  0  0  0  0  0  0  0  0  0
   62.6852   -7.6307   -9.3201 C   0  0  0  0  0  0  0  0  0  0  0  0
   63.6526   -6.6393   -9.9042 C   0  0  0  0  0  0  0  0  0  0  0  0
 32 33  1  0  0  0
 33 34  1  0  0  0
 33 25  1  0  0  0
 25 23  1  0  0  0
 23 20  1  0  0  0
 20 21  2  0  0  0
 20 22  2  0  0  0
 20  1  1  0  0  0
  1  2  2  0  0  0
  2  3  1  0  0  0
  3  4  2  0  0  0
  4  5  1  0  0  0
  5  6  2  0  0  0
  4  7  1  0  0  0
  7  8  2  0  0  0
  8  9  1  0  0  0
  9 10  2  0  0  0
 10 11  1  0  0  0
 10 12  1  0  0  0
 12 13  2  0  0  0
 12 16  1  0  0  0
 16 17  1  0  0  0
 16 18  1  0  0  0
 16 19  1  0  0  0
 25 26  1  0  0  0
 26 27  2  0  0  0
 27 28  1  0  0  0
 28 29  2  0  0  0
 29 30  1  0  0  0
 30 31  2  0  0  0
  6  1  1  0  0  0
 13  7  1  0  0  0
 31 26  1  0  0  0
 23 24  1  0  0  0
 11 14  1  0  0  0
 11 15  1  0  0  0
M  END
> <minimizedAffinity>
-8.26501

> <CNNscore>
0.8660546541

> <CNNaffinity>
6.9081230164

> <CNN_VS>
5.9828119278

> <CNNaffinity_variance>
0.0348249897

$$$$
[H]c1nc(N([H])[H])c(C(F)(F)F)nc1-c1c([H])c([H])c(S(=O)(=O)N([H])[C@]([H])(c2c([H])c([H])c([H])c([H])c2[H])C([H])(C([H])([H])[H])C([H])([H])[H])c([H])c1[H]


 34 36  0  0  0  0  0  0  0  0999 V2000
   58.4725   -5.6598   -9.2189 C   0  0  0  0  0  0  0  0  0  0  0  0
   57.7033   -5.1732  -10.2833 C   0  0  0  0  0  0  0  0  0  0  0  0
   56.4718   -4.6127  -10.0790 C   0  0  0  0  0  0  0  0  0  0  0  0
   55.9174   -4.4934   -8.8249 C   0  0  0  0  0  0  0  0  0  0  0  0
   56.6604   -4.9669   -7.7559 C   0  0  0  0  0  0  0  0  0  0  0  0
   57.9042   -5.5327   -7.9754 C   0  0  0  0  0  0  0  0  0  0  0  0
   54.5821   -3.8888   -8.6524 C   0  0  0  0  0  0  0  0  0  0  0  0
   54.1410   -2.7847   -9.3095 C   0  0  0  0  0  0  0  0  0  0  0  0
   52.8864   -2.2798   -9.0994 N   0  0  0  0  0  0  0  0  0  0  0  0
   52.0614   -2.9061   -8.2059 C   0  0  0  0  0  0  0  0  0  0  0  0
   50.7500   -2.4010   -7.9706 N   0  0  0  0  0  0  0  0  0  0  0  0
   52.5122   -4.0266   -7.5408 C   0  0  0  0  0  0  0  0  0  0  0  0
   53.7412   -4.4888   -7.7720 N   0  0  0  0  0  0  0  0  0  0  0  0
   50.6182   -1.5617   -7.3543 H   0  0  0  0  0  0  0  0  0  0  0  0
   49.8811   -2.8214   -8.3844 H   0  0  0  0  0  0  0  0  0  0  0  0
   51.6483   -4.7386   -6.5648 C   0  0  0  0  0  0  0  0  0  0  0  0
   50.6767   -5.4317   -7.2475 F   0  0  0  0  0  0  0  0  0  0  0  0
   52.3890   -5.5596   -5.7371 F   0  0  0  0  0  0  0  0  0  0  0  0
   51.0125   -3.8174   -5.7328 F   0  0  0  0  0  0  0  0  0  0  0  0
   60.0386   -6.3760   -9.4748 S   0  0  0  0  0  0  0  0  0  0  0  0
   59.8610   -7.7891  -10.0330 O   0  0  0  0  0  0  0  0  0  0  0  0
   60.6828   -5.5782  -10.6230 O   0  0  0  0  0  0  0  0  0  0  0  0
   61.0747   -6.3954   -8.1451 N   0  0  0  0  0  0  0  0  0  0  0  0
   60.5538   -6.2676   -7.2472 H   0  0  0  0  0  0  0  0  0  0  0  0
   62.1172   -7.3560   -8.1020 C   0  0  0  0  0  0  0  0  0  0  0  0
   61.7144   -8.4929   -7.2436 C   0  0  0  0  0  0  0  0  0  0  0  0
   61.5041   -8.4133   -5.8962 C   0  0  0  0  0  0  0  0  0  0  0  0
   61.1506   -9.4739   -5.0719 C   0  0  0  0  0  0  0  0  0  0  0  0
   60.9897  -10.7220   -5.6235 C   0  0  0  0  0  0  0  0  0  0  0  0
   61.1920  -10.8398   -6.9705 C   0  0  0  0  0  0  0  0  0  0  0  0
   61.5416   -9.7879   -7.7783 C   0  0  0  0  0  0  0  0  0  0  0  0
   63.7212   -5.4059   -8.1647 C   0  0  0  0  0  0  0  0  0  0  0  0
   63.3970   -6.7584   -7.5353 C   0  0  0  0  0  0  0  0  0  0  0  0
   64.5697   -7.6396   -7.8644 C   0  0  0  0  0  0  0  0  0  0  0  0
 32 33  1  0  0  0
 33 34  1  0  0  0
 33 25  1  0  0  0
 25 23  1  0  0  0
 23 20  1  0  0  0
 20 21  2  0  0  0
 20 22  2  0  0  0
 20  1  1  0  0  0
  1  2  2  0  0  0
  2  3  1  0  0  0
  3  4  2  0  0  0
  4  5  1  0  0  0
  5  6  2  0  0  0
  4  7  1  0  0  0
  7  8  2  0  0  0
  8  9  1  0  0  0
  9 10  2  0  0  0
 10 11  1  0  0  0
 10 12  1  0  0  0
 12 13  2  0  0  0
 12 16  1  0  0  0
 16 17  1  0  0  0
 16 18  1  0  0  0
 16 19  1  0  0  0
 25 26  1  0  0  0
 26 27  2  0  0  0
 27 28  1  0  0  0
 28 29  2  0  0  0
 29 30  1  0  0  0
 30 31  2  0  0  0
  6  1  1  0  0  0
 13  7  1  0  0  0
 31 26  1  0  0  0
 23 24  1  0  0  0
 11 14  1  0  0  0
 11 15  1  0  0  0
M  END
> <minimizedAffinity>
-8.25111

> <CNNscore>
0.8320299387

> <CNNaffinity>
6.8917236328

> <CNN_VS>
5.7341203690

> <CNNaffinity_variance>
0.0957651436

$$$$
[H]c1nc(N([H])[H])c(C(F)(F)F)nc1-c1c([H])c([H])c(S(=O)(=O)N([H])[C@]([H])(c2c([H])c([H])c([H])c([H])c2[H])C([H])(C([H])([H])[H])C([H])([H])[H])c([H])c1[H]


 34 36  0  0  0  0  0  0  0  0999 V2000
   58.9194   -5.7428   -9.2132 C   0  0  0  0  0  0  0  0  0  0  0  0
   58.1767   -5.2745  -10.3042 C   0  0  0  0  0  0  0  0  0  0  0  0
   56.9220   -4.7520  -10.1448 C   0  0  0  0  0  0  0  0  0  0  0  0
   56.3174   -4.6551   -8.9121 C   0  0  0  0  0  0  0  0  0  0  0  0
   57.0333   -5.1112   -7.8175 C   0  0  0  0  0  0  0  0  0  0  0  0
   58.3010   -5.6385   -7.9916 C   0  0  0  0  0  0  0  0  0  0  0  0
   54.9589   -4.0915   -8.7883 C   0  0  0  0  0  0  0  0  0  0  0  0
   54.4857   -3.0444   -9.5127 C   0  0  0  0  0  0  0  0  0  0  0  0
   53.2111   -2.5751   -9.3447 N   0  0  0  0  0  0  0  0  0  0  0  0
   52.3989   -3.1789   -8.4244 C   0  0  0  0  0  0  0  0  0  0  0  0
   51.0673   -2.7101   -8.2318 N   0  0  0  0  0  0  0  0  0  0  0  0
   52.8823   -4.2416   -7.6908 C   0  0  0  0  0  0  0  0  0  0  0  0
   54.1300   -4.6705   -7.8827 N   0  0  0  0  0  0  0  0  0  0  0  0
   50.8976   -1.8420   -7.6667 H   0  0  0  0  0  0  0  0  0  0  0  0
   50.2192   -3.1856   -8.6289 H   0  0  0  0  0  0  0  0  0  0  0  0
   52.0333   -4.9276   -6.6836 C   0  0  0  0  0  0  0  0  0  0  0  0
   51.3719   -3.9823   -5.9357 F   0  0  0  0  0  0  0  0  0  0  0  0
   51.1648   -5.8222   -7.2779 F   0  0  0  0  0  0  0  0  0  0  0  0
   52.8323   -5.6754   -5.8191 F   0  0  0  0  0  0  0  0  0  0  0  0
   60.5149   -6.4106   -9.4121 S   0  0  0  0  0  0  0  0  0  0  0  0
   61.0193   -6.0983  -10.8220 O   0  0  0  0  0  0  0  0  0  0  0  0
   61.4299   -5.5977   -8.4784 O   0  0  0  0  0  0  0  0  0  0  0  0
   60.6805   -8.0550   -9.0796 N   0  0  0  0  0  0  0  0  0  0  0  0
   60.1152   -8.6411   -9.7360 H   0  0  0  0  0  0  0  0  0  0  0  0
   61.9677   -8.5670   -8.7757 C   0  0  0  0  0  0  0  0  0  0  0  0
   62.3977   -9.5025   -9.8394 C   0  0  0  0  0  0  0  0  0  0  0  0
   61.9605  -10.7906   -9.9651 C   0  0  0  0  0  0  0  0  0  0  0  0
   62.3717  -11.6893  -10.9410 C   0  0  0  0  0  0  0  0  0  0  0  0
   63.2941  -11.2834  -11.8751 C   0  0  0  0  0  0  0  0  0  0  0  0
   63.7545   -9.9995  -11.7803 C   0  0  0  0  0  0  0  0  0  0  0  0
   63.3442   -9.1176  -10.8134 C   0  0  0  0  0  0  0  0  0  0  0  0
   61.5033   -8.4312   -6.2966 C   0  0  0  0  0  0  0  0  0  0  0  0
   61.9664   -9.3163   -7.4510 C   0  0  0  0  0  0  0  0  0  0  0  0
   63.3649   -9.7356   -7.0923 C   0  0  0  0  0  0  0  0  0  0  0  0
 32 33  1  0  0  0
 33 34  1  0  0  0
 33 25  1  0  0  0
 25 23  1  0  0  0
 23 20  1  0  0  0
 20 21  2  0  0  0
 20 22  2  0  0  0
 20  1  1  0  0  0
  1  2  2  0  0  0
  2  3  1  0  0  0
  3  4  2  0  0  0
  4  5  1  0  0  0
  5  6  2  0  0  0
  4  7  1  0  0  0
  7  8  2  0  0  0
  8  9  1  0  0  0
  9 10  2  0  0  0
 10 11  1  0  0  0
 10 12  1  0  0  0
 12 13  2  0  0  0
 12 16  1  0  0  0
 16 17  1  0  0  0
 16 18  1  0  0  0
 16 19  1  0  0  0
 25 26  1  0  0  0
 26 27  2  0  0  0
 27 28  1  0  0  0
 28 29  2  0  0  0
 29 30  1  0  0  0
 30 31  2  0  0  0
  6  1  1  0  0  0
 13  7  1  0  0  0
 31 26  1  0  0  0
 23 24  1  0  0  0
 11 14  1  0  0  0
 11 15  1  0  0  0
M  END
> <minimizedAffinity>
-7.85756

> <CNNscore>
0.8194007277

> <CNNaffinity>
6.7664308548

> <CNN_VS>
5.5444183350

> <CNNaffinity_variance>
0.0924939960

$$$$
[H]c1nc(N([H])[H])c(C(F)(F)F)nc1-c1c([H])c([H])c(S(=O)(=O)N([H])[C@]([H])(c2c([H])c([H])c([H])c([H])c2[H])C([H])(C([H])([H])[H])C([H])([H])[H])c([H])c1[H]


 34 36  0  0  0  0  0  0  0  0999 V2000
   58.9603   -5.7689   -9.3307 C   0  0  0  0  0  0  0  0  0  0  0  0
   58.2098   -5.3030  -10.4175 C   0  0  0  0  0  0  0  0  0  0  0  0
   56.9653   -4.7599  -10.2478 C   0  0  0  0  0  0  0  0  0  0  0  0
   56.3790   -4.6388   -9.0084 C   0  0  0  0  0  0  0  0  0  0  0  0
   57.1030   -5.0919   -7.9178 C   0  0  0  0  0  0  0  0  0  0  0  0
   58.3603   -5.6402   -8.1024 C   0  0  0  0  0  0  0  0  0  0  0  0
   55.0309   -4.0534   -8.8734 C   0  0  0  0  0  0  0  0  0  0  0  0
   54.5750   -2.9872   -9.5809 C   0  0  0  0  0  0  0  0  0  0  0  0
   53.3090   -2.4982   -9.4033 N   0  0  0  0  0  0  0  0  0  0  0  0
   52.4878   -3.1017   -8.4908 C   0  0  0  0  0  0  0  0  0  0  0  0
   51.1650   -2.6126   -8.2885 N   0  0  0  0  0  0  0  0  0  0  0  0
   52.9537   -4.1838   -7.7744 C   0  0  0  0  0  0  0  0  0  0  0  0
   54.1934   -4.6315   -7.9751 N   0  0  0  0  0  0  0  0  0  0  0  0
   51.0115   -1.7504   -7.7099 H   0  0  0  0  0  0  0  0  0  0  0  0
   50.3081   -3.0671   -8.6912 H   0  0  0  0  0  0  0  0  0  0  0  0
   52.0945   -4.8700   -6.7761 C   0  0  0  0  0  0  0  0  0  0  0  0
   51.4174   -3.9252   -6.0418 F   0  0  0  0  0  0  0  0  0  0  0  0
   51.2394   -5.7722   -7.3785 F   0  0  0  0  0  0  0  0  0  0  0  0
   52.8854   -5.6096   -5.8971 F   0  0  0  0  0  0  0  0  0  0  0  0
   60.5428   -6.4630   -9.5426 S   0  0  0  0  0  0  0  0  0  0  0  0
   61.3060   -6.3903   -8.2189 O   0  0  0  0  0  0  0  0  0  0  0  0
   60.3135   -7.9664   -9.7818 O   0  0  0  0  0  0  0  0  0  0  0  0
   61.4746   -5.8241  -10.7939 N   0  0  0  0  0  0  0  0  0  0  0  0
   61.8671   -4.8874  -10.5443 H   0  0  0  0  0  0  0  0  0  0  0  0
   62.3639   -6.6799  -11.4926 C   0  0  0  0  0  0  0  0  0  0  0  0
   63.4616   -7.1020  -10.5935 C   0  0  0  0  0  0  0  0  0  0  0  0
   64.3510   -6.2515  -10.0003 C   0  0  0  0  0  0  0  0  0  0  0  0
   65.4013   -6.6316   -9.1747 C   0  0  0  0  0  0  0  0  0  0  0  0
   65.5919   -7.9664   -8.9101 C   0  0  0  0  0  0  0  0  0  0  0  0
   64.7202   -8.8476   -9.4872 C   0  0  0  0  0  0  0  0  0  0  0  0
   63.6854   -8.4649  -10.3019 C   0  0  0  0  0  0  0  0  0  0  0  0
   61.9977   -4.9978  -13.3409 C   0  0  0  0  0  0  0  0  0  0  0  0
   62.9746   -5.9785  -12.6972 C   0  0  0  0  0  0  0  0  0  0  0  0
   63.2958   -6.9801  -13.7714 C   0  0  0  0  0  0  0  0  0  0  0  0
 32 33  1  0  0  0
 33 34  1  0  0  0
 33 25  1  0  0  0
 25 23  1  0  0  0
 23 20  1  0  0  0
 20 21  2  0  0  0
 20 22  2  0  0  0
 20  1  1  0  0  0
  1  2  2  0  0  0
  2  3  1  0  0  0
  3  4  2  0  0  0
  4  5  1  0  0  0
  5  6  2  0  0  0
  4  7  1  0  0  0
  7  8  2  0  0  0
  8  9  1  0  0  0
  9 10  2  0  0  0
 10 11  1  0  0  0
 10 12  1  0  0  0
 12 13  2  0  0  0
 12 16  1  0  0  0
 16 17  1  0  0  0
 16 18  1  0  0  0
 16 19  1  0  0  0
 25 26  1  0  0  0
 26 27  2  0  0  0
 27 28  1  0  0  0
 28 29  2  0  0  0
 29 30  1  0  0  0
 30 31  2  0  0  0
  6  1  1  0  0  0
 13  7  1  0  0  0
 31 26  1  0  0  0
 23 24  1  0  0  0
 11 14  1  0  0  0
 11 15  1  0  0  0
M  END
> <minimizedAffinity>
-7.41798

> <CNNscore>
0.6621024609

> <CNNaffinity>
6.5455884933

> <CNN_VS>
4.3338503838

> <CNNaffinity_variance>
0.1264772415

$$$$
[H]c1nc(N([H])[H])c(C(F)(F)F)nc1-c1c([H])c([H])c(S(=O)(=O)N([H])[C@]([H])(c2c([H])c([H])c([H])c([H])c2[H])C([H])(C([H])([H])[H])C([H])([H])[H])c([H])c1[H]


 34 36  0  0  0  0  0  0  0  0999 V2000
   59.4242   -5.8999   -9.3568 C   0  0  0  0  0  0  0  0  0  0  0  0
   58.7547   -5.7588   -8.1348 C   0  0  0  0  0  0  0  0  0  0  0  0
   57.4968   -5.2245   -8.0652 C   0  0  0  0  0  0  0  0  0  0  0  0
   56.8173   -4.7963   -9.1829 C   0  0  0  0  0  0  0  0  0  0  0  0
   57.4591   -4.9268  -10.4035 C   0  0  0  0  0  0  0  0  0  0  0  0
   58.7316   -5.4678  -10.4609 C   0  0  0  0  0  0  0  0  0  0  0  0
   55.4646   -4.2189   -9.0596 C   0  0  0  0  0  0  0  0  0  0  0  0
   54.9822   -3.2055   -9.8248 C   0  0  0  0  0  0  0  0  0  0  0  0
   53.7137   -2.7207   -9.6545 N   0  0  0  0  0  0  0  0  0  0  0  0
   52.9172   -3.2737   -8.6896 C   0  0  0  0  0  0  0  0  0  0  0  0
   51.5923   -2.7879   -8.4936 N   0  0  0  0  0  0  0  0  0  0  0  0
   53.4099   -4.3023   -7.9147 C   0  0  0  0  0  0  0  0  0  0  0  0
   54.6512   -4.7478   -8.1103 N   0  0  0  0  0  0  0  0  0  0  0  0
   51.4386   -1.8922   -7.9684 H   0  0  0  0  0  0  0  0  0  0  0  0
   50.7339   -3.2769   -8.8498 H   0  0  0  0  0  0  0  0  0  0  0  0
   52.5780   -4.9329   -6.8583 C   0  0  0  0  0  0  0  0  0  0  0  0
   53.4018   -5.5554   -5.9503 F   0  0  0  0  0  0  0  0  0  0  0  0
   51.7406   -4.0138   -6.2568 F   0  0  0  0  0  0  0  0  0  0  0  0
   51.7506   -5.9040   -7.4217 F   0  0  0  0  0  0  0  0  0  0  0  0
   61.0255   -6.5768   -9.4494 S   0  0  0  0  0  0  0  0  0  0  0  0
   61.9911   -5.6963   -8.6542 O   0  0  0  0  0  0  0  0  0  0  0  0
   60.9674   -7.9016   -8.6674 O   0  0  0  0  0  0  0  0  0  0  0  0
   61.6268   -6.8575  -10.9991 N   0  0  0  0  0  0  0  0  0  0  0  0
   60.9499   -6.5555  -11.7370 H   0  0  0  0  0  0  0  0  0  0  0  0
   62.9855   -6.5564  -11.2725 C   0  0  0  0  0  0  0  0  0  0  0  0
   63.1145   -6.0366  -12.6527 C   0  0  0  0  0  0  0  0  0  0  0  0
   64.1507   -6.3203  -13.4964 C   0  0  0  0  0  0  0  0  0  0  0  0
   64.3005   -5.8220  -14.7842 C   0  0  0  0  0  0  0  0  0  0  0  0
   63.3458   -4.9700  -15.2848 C   0  0  0  0  0  0  0  0  0  0  0  0
   62.2932   -4.6633  -14.4678 C   0  0  0  0  0  0  0  0  0  0  0  0
   62.1521   -5.1588  -13.1967 C   0  0  0  0  0  0  0  0  0  0  0  0
   63.0426   -9.0799  -11.1801 C   0  0  0  0  0  0  0  0  0  0  0  0
   63.8630   -7.7930  -11.1428 C   0  0  0  0  0  0  0  0  0  0  0  0
   64.5516   -7.8010   -9.8064 C   0  0  0  0  0  0  0  0  0  0  0  0
 32 33  1  0  0  0
 33 34  1  0  0  0
 33 25  1  0  0  0
 25 23  1  0  0  0
 23 20  1  0  0  0
 20 21  2  0  0  0
 20 22  2  0  0  0
 20  1  1  0  0  0
  1  2  2  0  0  0
  2  3  1  0  0  0
  3  4  2  0  0  0
  4  5  1  0  0  0
  5  6  2  0  0  0
  4  7  1  0  0  0
  7  8  2  0  0  0
  8  9  1  0  0  0
  9 10  2  0  0  0
 10 11  1  0  0  0
 10 12  1  0  0  0
 12 13  2  0  0  0
 12 16  1  0  0  0
 16 17  1  0  0  0
 16 18  1  0  0  0
 16 19  1  0  0  0
 25 26  1  0  0  0
 26 27  2  0  0  0
 27 28  1  0  0  0
 28 29  2  0  0  0
 29 30  1  0  0  0
 30 31  2  0  0  0
  6  1  1  0  0  0
 13  7  1  0  0  0
 31 26  1  0  0  0
 23 24  1  0  0  0
 11 14  1  0  0  0
 11 15  1  0  0  0
M  END
> <minimizedAffinity>
-6.72853

> <CNNscore>
0.5570451021

> <CNNaffinity>
6.4046068192

> <CNN_VS>
3.5676548481

> <CNNaffinity_variance>
0.1083683521

$$$$
[H]c1nc(N([H])[H])c(C(F)(F)F)nc1-c1c([H])c([H])c(S(=O)(=O)N([H])[C@]([H])(c2c([H])c([H])c([H])c([H])c2[H])C([H])(C([H])([H])[H])C([H])([H])[H])c([H])c1[H]


 34 36  0  0  0  0  0  0  0  0999 V2000
   56.5560   -4.5042   -9.0993 C   0  0  0  0  0  0  0  0  0  0  0  0
   55.4839   -4.0754   -9.8919 C   0  0  0  0  0  0  0  0  0  0  0  0
   55.5864   -3.9993  -11.2543 C   0  0  0  0  0  0  0  0  0  0  0  0
   56.7402   -4.3369  -11.9246 C   0  0  0  0  0  0  0  0  0  0  0  0
   57.8142   -4.7650  -11.1616 C   0  0  0  0  0  0  0  0  0  0  0  0
   57.6986   -4.8368   -9.7843 C   0  0  0  0  0  0  0  0  0  0  0  0
   56.8082   -4.2318  -13.3952 C   0  0  0  0  0  0  0  0  0  0  0  0
   55.8317   -4.6397  -14.2468 C   0  0  0  0  0  0  0  0  0  0  0  0
   55.9636   -4.5094  -15.6029 N   0  0  0  0  0  0  0  0  0  0  0  0
   57.1079   -3.9543  -16.1067 C   0  0  0  0  0  0  0  0  0  0  0  0
   57.2689   -3.8062  -17.5146 N   0  0  0  0  0  0  0  0  0  0  0  0
   58.0971   -3.5413  -15.2395 C   0  0  0  0  0  0  0  0  0  0  0  0
   57.9322   -3.6848  -13.9242 N   0  0  0  0  0  0  0  0  0  0  0  0
   57.5318   -4.6376  -18.0989 H   0  0  0  0  0  0  0  0  0  0  0  0
   57.1373   -2.8970  -18.0235 H   0  0  0  0  0  0  0  0  0  0  0  0
   59.3536   -2.9311  -15.7440 C   0  0  0  0  0  0  0  0  0  0  0  0
   60.1792   -2.6583  -14.6789 F   0  0  0  0  0  0  0  0  0  0  0  0
   59.9659   -3.7364  -16.6844 F   0  0  0  0  0  0  0  0  0  0  0  0
   59.0717   -1.7260  -16.3869 F   0  0  0  0  0  0  0  0  0  0  0  0
   56.4305   -4.6000   -7.3655 S   0  0  0  0  0  0  0  0  0  0  0  0
   57.0533   -5.9127   -6.8872 O   0  0  0  0  0  0  0  0  0  0  0  0
   57.3587   -3.5017   -6.8158 O   0  0  0  0  0  0  0  0  0  0  0  0
   54.8846   -4.4133   -6.7194 N   0  0  0  0  0  0  0  0  0  0  0  0
   54.4827   -3.4742   -6.9437 H   0  0  0  0  0  0  0  0  0  0  0  0
   53.9697   -5.4935   -6.8069 C   0  0  0  0  0  0  0  0  0  0  0  0
   52.5948   -4.9717   -6.9771 C   0  0  0  0  0  0  0  0  0  0  0  0
   52.2877   -3.7401   -7.4822 C   0  0  0  0  0  0  0  0  0  0  0  0
   51.0059   -3.2249   -7.6255 C   0  0  0  0  0  0  0  0  0  0  0  0
   49.9325   -3.9901   -7.2376 C   0  0  0  0  0  0  0  0  0  0  0  0
   50.2019   -5.2295   -6.7269 C   0  0  0  0  0  0  0  0  0  0  0  0
   51.4706   -5.7315   -6.5879 C   0  0  0  0  0  0  0  0  0  0  0  0
   54.5855   -5.5926   -4.3593 C   0  0  0  0  0  0  0  0  0  0  0  0
   54.0042   -6.3508   -5.5500 C   0  0  0  0  0  0  0  0  0  0  0  0
   54.9156   -7.5293   -5.7522 C   0  0  0  0  0  0  0  0  0  0  0  0
 32 33  1  0  0  0
 33 34  1  0  0  0
 33 25  1  0  0  0
 25 23  1  0  0  0
 23 20  1  0  0  0
 20 21  2  0  0  0
 20 22  2  0  0  0
 20  1  1  0  0  0
  1  2  2  0  0  0
  2  3  1  0  0  0
  3  4  2  0  0  0
  4  5  1  0  0  0
  5  6  2  0  0  0
  4  7  1  0  0  0
  7  8  2  0  0  0
  8  9  1  0  0  0
  9 10  2  0  0  0
 10 11  1  0  0  0
 10 12  1  0  0  0
 12 13  2  0  0  0
 12 16  1  0  0  0
 16 17  1  0  0  0
 16 18  1  0  0  0
 16 19  1  0  0  0
 25 26  1  0  0  0
 26 27  2  0  0  0
 27 28  1  0  0  0
 28 29  2  0  0  0
 29 30  1  0  0  0
 30 31  2  0  0  0
  6  1  1  0  0  0
 13  7  1  0  0  0
 31 26  1  0  0  0
 23 24  1  0  0  0
 11 14  1  0  0  0
 11 15  1  0  0  0
M  END
> <minimizedAffinity>
-8.40187

> <CNNscore>
0.2368484586

> <CNNaffinity>
6.4657793045

> <CNN_VS>
1.5314098597

> <CNNaffinity_variance>
0.3084329069

$$$$
[H]c1nc(N([H])[H])c(C(F)(F)F)nc1-c1c([H])c([H])c(S(=O)(=O)N([H])[C@]([H])(c2c([H])c([H])c([H])c([H])c2[H])C([H])(C([H])([H])[H])C([H])([H])[H])c([H])c1[H]


 34 36  0  0  0  0  0  0  0  0999 V2000
   55.9509   -5.0633   -8.1187 C   0  0  0  0  0  0  0  0  0  0  0  0
   57.2669   -5.3713   -8.4857 C   0  0  0  0  0  0  0  0  0  0  0  0
   57.7553   -5.0619   -9.7260 C   0  0  0  0  0  0  0  0  0  0  0  0
   56.9895   -4.4339  -10.6818 C   0  0  0  0  0  0  0  0  0  0  0  0
   55.6844   -4.1183  -10.3414 C   0  0  0  0  0  0  0  0  0  0  0  0
   55.2016   -4.4372   -9.0841 C   0  0  0  0  0  0  0  0  0  0  0  0
   57.5557   -4.1263  -12.0097 C   0  0  0  0  0  0  0  0  0  0  0  0
   58.8408   -3.7482  -12.2350 C   0  0  0  0  0  0  0  0  0  0  0  0
   59.2975   -3.4796  -13.4970 N   0  0  0  0  0  0  0  0  0  0  0  0
   58.4352   -3.5968  -14.5524 C   0  0  0  0  0  0  0  0  0  0  0  0
   58.8866   -3.3244  -15.8760 N   0  0  0  0  0  0  0  0  0  0  0  0
   57.1314   -3.9810  -14.3201 C   0  0  0  0  0  0  0  0  0  0  0  0
   56.7233   -4.2341  -13.0764 N   0  0  0  0  0  0  0  0  0  0  0  0
   58.9890   -2.3303  -16.1968 H   0  0  0  0  0  0  0  0  0  0  0  0
   59.1327   -4.0707  -16.5727 H   0  0  0  0  0  0  0  0  0  0  0  0
   56.1632   -4.1233  -15.4373 C   0  0  0  0  0  0  0  0  0  0  0  0
   55.1664   -4.9916  -15.0594 F   0  0  0  0  0  0  0  0  0  0  0  0
   55.6637   -2.8981  -15.8339 F   0  0  0  0  0  0  0  0  0  0  0  0
   56.8016   -4.6637  -16.5533 F   0  0  0  0  0  0  0  0  0  0  0  0
   55.3250   -5.4576   -6.5427 S   0  0  0  0  0  0  0  0  0  0  0  0
   55.3242   -6.9771   -6.3669 O   0  0  0  0  0  0  0  0  0  0  0  0
   56.3708   -4.9461   -5.5354 O   0  0  0  0  0  0  0  0  0  0  0  0
   53.8109   -4.8212   -6.1624 N   0  0  0  0  0  0  0  0  0  0  0  0
   53.8700   -3.8084   -5.9083 H   0  0  0  0  0  0  0  0  0  0  0  0
   52.6972   -5.1736   -6.9666 C   0  0  0  0  0  0  0  0  0  0  0  0
   51.7839   -4.0151   -7.0913 C   0  0  0  0  0  0  0  0  0  0  0  0
   50.6803   -3.8081   -6.3133 C   0  0  0  0  0  0  0  0  0  0  0  0
   49.7991   -2.7411   -6.4326 C   0  0  0  0  0  0  0  0  0  0  0  0
   50.0252   -1.7950   -7.4031 C   0  0  0  0  0  0  0  0  0  0  0  0
   51.1215   -1.9696   -8.2013 C   0  0  0  0  0  0  0  0  0  0  0  0
   51.9871   -3.0263   -8.0780 C   0  0  0  0  0  0  0  0  0  0  0  0
   50.5955   -6.5700   -7.0787 C   0  0  0  0  0  0  0  0  0  0  0  0
   51.9203   -6.3323   -6.3584 C   0  0  0  0  0  0  0  0  0  0  0  0
   51.5469   -6.0156   -4.9370 C   0  0  0  0  0  0  0  0  0  0  0  0
 32 33  1  0  0  0
 33 34  1  0  0  0
 33 25  1  0  0  0
 25 23  1  0  0  0
 23 20  1  0  0  0
 20 21  2  0  0  0
 20 22  2  0  0  0
 20  1  1  0  0  0
  1  2  2  0  0  0
  2  3  1  0  0  0
  3  4  2  0  0  0
  4  5  1  0  0  0
  5  6  2  0  0  0
  4  7  1  0  0  0
  7  8  2  0  0  0
  8  9  1  0  0  0
  9 10  2  0  0  0
 10 11  1  0  0  0
 10 12  1  0  0  0
 12 13  2  0  0  0
 12 16  1  0  0  0
 16 17  1  0  0  0
 16 18  1  0  0  0
 16 19  1  0  0  0
 25 26  1  0  0  0
 26 27  2  0  0  0
 27 28  1  0  0  0
 28 29  2  0  0  0
 29 30  1  0  0  0
 30 31  2  0  0  0
  6  1  1  0  0  0
 13  7  1  0  0  0
 31 26  1  0  0  0
 23 24  1  0  0  0
 11 14  1  0  0  0
 11 15  1  0  0  0
M  END
> <minimizedAffinity>
-9.97081

> <CNNscore>
0.2336763442

> <CNNaffinity>
6.5657987595

> <CNN_VS>
1.5342718363

> <CNNaffinity_variance>
0.3294193745

$$$$
[H]c1nc(N([H])[H])c(C(F)(F)F)nc1-c1c([H])c([H])c(S(=O)(=O)N([H])[C@]([H])(c2c([H])c([H])c([H])c([H])c2[H])C([H])(C([H])([H])[H])C([H])([H])[H])c([H])c1[H]


 34 36  0  0  0  0  0  0  0  0999 V2000
   56.3676   -5.1970   -8.1284 C   0  0  0  0  0  0  0  0  0  0  0  0
   57.6530   -5.5215   -8.5801 C   0  0  0  0  0  0  0  0  0  0  0  0
   58.0743   -5.1899   -9.8390 C   0  0  0  0  0  0  0  0  0  0  0  0
   57.2675   -4.5221  -10.7321 C   0  0  0  0  0  0  0  0  0  0  0  0
   55.9916   -4.1895  -10.3074 C   0  0  0  0  0  0  0  0  0  0  0  0
   55.5766   -4.5313   -9.0320 C   0  0  0  0  0  0  0  0  0  0  0  0
   57.7614   -4.1916  -12.0831 C   0  0  0  0  0  0  0  0  0  0  0  0
   59.0267   -3.7877  -12.3679 C   0  0  0  0  0  0  0  0  0  0  0  0
   59.4152   -3.4988  -13.6480 N   0  0  0  0  0  0  0  0  0  0  0  0
   58.5037   -3.6218  -14.6606 C   0  0  0  0  0  0  0  0  0  0  0  0
   58.8838   -3.3285  -16.0020 N   0  0  0  0  0  0  0  0  0  0  0  0
   57.2202   -4.0322  -14.3680 C   0  0  0  0  0  0  0  0  0  0  0  0
   56.8790   -4.3045  -13.1083 N   0  0  0  0  0  0  0  0  0  0  0  0
   58.9523   -2.3297  -16.3172 H   0  0  0  0  0  0  0  0  0  0  0  0
   59.1083   -4.0635  -16.7177 H   0  0  0  0  0  0  0  0  0  0  0  0
   56.2004   -4.1816  -15.4373 C   0  0  0  0  0  0  0  0  0  0  0  0
   55.6304   -2.9558  -15.6883 F   0  0  0  0  0  0  0  0  0  0  0  0
   56.7394   -4.7480  -16.5760 F   0  0  0  0  0  0  0  0  0  0  0  0
   55.1904   -5.0448  -15.0131 F   0  0  0  0  0  0  0  0  0  0  0  0
   55.8268   -5.6195   -6.5284 S   0  0  0  0  0  0  0  0  0  0  0  0
   55.3903   -4.3511   -5.7931 O   0  0  0  0  0  0  0  0  0  0  0  0
   54.5303   -6.4267   -6.7227 O   0  0  0  0  0  0  0  0  0  0  0  0
   56.9098   -6.5023   -5.5852 N   0  0  0  0  0  0  0  0  0  0  0  0
   57.8774   -6.4768   -5.9814 H   0  0  0  0  0  0  0  0  0  0  0  0
   56.8371   -6.3924   -4.1731 C   0  0  0  0  0  0  0  0  0  0  0  0
   58.0870   -6.9038   -3.5667 C   0  0  0  0  0  0  0  0  0  0  0  0
   58.9052   -7.8350   -4.1409 C   0  0  0  0  0  0  0  0  0  0  0  0
   60.0673   -8.3443   -3.5758 C   0  0  0  0  0  0  0  0  0  0  0  0
   60.4577   -7.8968   -2.3367 C   0  0  0  0  0  0  0  0  0  0  0  0
   59.6626   -6.9638   -1.7312 C   0  0  0  0  0  0  0  0  0  0  0  0
   58.5159   -6.4658   -2.2952 C   0  0  0  0  0  0  0  0  0  0  0  0
   54.8587   -6.3915   -2.6029 C   0  0  0  0  0  0  0  0  0  0  0  0
   55.6709   -7.1953   -3.6151 C   0  0  0  0  0  0  0  0  0  0  0  0
   56.1805   -8.3886   -2.8558 C   0  0  0  0  0  0  0  0  0  0  0  0
 32 33  1  0  0  0
 33 34  1  0  0  0
 33 25  1  0  0  0
 25 23  1  0  0  0
 23 20  1  0  0  0
 20 21  2  0  0  0
 20 22  2  0  0  0
 20  1  1  0  0  0
  1  2  2  0  0  0
  2  3  1  0  0  0
  3  4  2  0  0  0
  4  5  1  0  0  0
  5  6  2  0  0  0
  4  7  1  0  0  0
  7  8  2  0  0  0
  8  9  1  0  0  0
  9 10  2  0  0  0
 10 11  1  0  0  0
 10 12  1  0  0  0
 12 13  2  0  0  0
 12 16  1  0  0  0
 16 17  1  0  0  0
 16 18  1  0  0  0
 16 19  1  0  0  0
 25 26  1  0  0  0
 26 27  2  0  0  0
 27 28  1  0  0  0
 28 29  2  0  0  0
 29 30  1  0  0  0
 30 31  2  0  0  0
  6  1  1  0  0  0
 13  7  1  0  0  0
 31 26  1  0  0  0
 23 24  1  0  0  0
 11 14  1  0  0  0
 11 15  1  0  0  0
M  END
> <minimizedAffinity>
-7.23485

> <CNNscore>
0.2316384315

> <CNNaffinity>
5.8885908127

> <CNN_VS>
1.3640239239

> <CNNaffinity_variance>
0.3131461740

$$$$
[H]c1nc(N([H])[H])c(C(F)(F)F)nc1-c1c([H])c([H])c(S(=O)(=O)N([H])[C@]([H])(c2c([H])c([H])c([H])c([H])c2[H])C([H])(C([H])([H])[H])C([H])([H])[H])c([H])c1[H]


 34 36  0  0  0  0  0  0  0  0999 V2000
   53.0585   -4.1840   -7.8622 C   0  0  0  0  0  0  0  0  0  0  0  0
   51.8055   -3.8796   -7.3157 C   0  0  0  0  0  0  0  0  0  0  0  0
   51.4004   -4.4034   -6.1182 C   0  0  0  0  0  0  0  0  0  0  0  0
   52.1931   -5.2549   -5.3826 C   0  0  0  0  0  0  0  0  0  0  0  0
   53.4377   -5.5699   -5.9027 C   0  0  0  0  0  0  0  0  0  0  0  0
   53.8358   -5.0345   -7.1153 C   0  0  0  0  0  0  0  0  0  0  0  0
   51.7117   -5.8024   -4.0993 C   0  0  0  0  0  0  0  0  0  0  0  0
   50.5129   -5.5079   -3.5325 C   0  0  0  0  0  0  0  0  0  0  0  0
   50.1318   -6.0558   -2.3376 N   0  0  0  0  0  0  0  0  0  0  0  0
   50.9821   -6.9199   -1.7039 C   0  0  0  0  0  0  0  0  0  0  0  0
   50.6080   -7.5049   -0.4598 N   0  0  0  0  0  0  0  0  0  0  0  0
   52.1981   -7.2168   -2.2820 C   0  0  0  0  0  0  0  0  0  0  0  0
   52.5344   -6.6630   -3.4473 N   0  0  0  0  0  0  0  0  0  0  0  0
   50.6799   -6.9415    0.4229 H   0  0  0  0  0  0  0  0  0  0  0  0
   50.2533   -8.4885   -0.3618 H   0  0  0  0  0  0  0  0  0  0  0  0
   53.1497   -8.1518   -1.6294 C   0  0  0  0  0  0  0  0  0  0  0  0
   52.4779   -9.2953   -1.2669 F   0  0  0  0  0  0  0  0  0  0  0  0
   54.2338   -8.4205   -2.4421 F   0  0  0  0  0  0  0  0  0  0  0  0
   53.6655   -7.5724   -0.4704 F   0  0  0  0  0  0  0  0  0  0  0  0
   53.5767   -3.5217   -9.3867 S   0  0  0  0  0  0  0  0  0  0  0  0
   52.9321   -4.3144  -10.5252 O   0  0  0  0  0  0  0  0  0  0  0  0
   52.9419   -2.1219   -9.4740 O   0  0  0  0  0  0  0  0  0  0  0  0
   55.2421   -3.4060   -9.6206 N   0  0  0  0  0  0  0  0  0  0  0  0
   55.7497   -3.2548   -8.7188 H   0  0  0  0  0  0  0  0  0  0  0  0
   55.8723   -4.3034  -10.5201 C   0  0  0  0  0  0  0  0  0  0  0  0
   57.1248   -4.8158   -9.9197 C   0  0  0  0  0  0  0  0  0  0  0  0
   58.1460   -5.3894  -10.6229 C   0  0  0  0  0  0  0  0  0  0  0  0
   59.3162   -5.8977  -10.0739 C   0  0  0  0  0  0  0  0  0  0  0  0
   59.4963   -5.8353   -8.7131 C   0  0  0  0  0  0  0  0  0  0  0  0
   58.4942   -5.2673   -7.9765 C   0  0  0  0  0  0  0  0  0  0  0  0
   57.3409   -4.7677   -8.5256 C   0  0  0  0  0  0  0  0  0  0  0  0
   56.2071   -4.5966  -13.0064 C   0  0  0  0  0  0  0  0  0  0  0  0
   56.2169   -3.6182  -11.8345 C   0  0  0  0  0  0  0  0  0  0  0  0
   57.6180   -3.0755  -11.7835 C   0  0  0  0  0  0  0  0  0  0  0  0
 32 33  1  0  0  0
 33 34  1  0  0  0
 33 25  1  0  0  0
 25 23  1  0  0  0
 23 20  1  0  0  0
 20 21  2  0  0  0
 20 22  2  0  0  0
 20  1  1  0  0  0
  1  2  2  0  0  0
  2  3  1  0  0  0
  3  4  2  0  0  0
  4  5  1  0  0  0
  5  6  2  0  0  0
  4  7  1  0  0  0
  7  8  2  0  0  0
  8  9  1  0  0  0
  9 10  2  0  0  0
 10 11  1  0  0  0
 10 12  1  0  0  0
 12 13  2  0  0  0
 12 16  1  0  0  0
 16 17  1  0  0  0
 16 18  1  0  0  0
 16 19  1  0  0  0
 25 26  1  0  0  0
 26 27  2  0  0  0
 27 28  1  0  0  0
 28 29  2  0  0  0
 29 30  1  0  0  0
 30 31  2  0  0  0
  6  1  1  0  0  0
 13  7  1  0  0  0
 31 26  1  0  0  0
 23 24  1  0  0  0
 11 14  1  0  0  0
 11 15  1  0  0  0
M  END
> <minimizedAffinity>
-8.48276

> <CNNscore>
0.2228751630

> <CNNaffinity>
6.7897119522

> <CNN_VS>
1.5132580996

> <CNNaffinity_variance>
0.2486534417

$$$$
[H]O[C@@]1([H])C([H])([H])C([H])([H])[C@@]2(C([H])([H])[H])[C@]([H])(C([H])([H])C([H])([H])[C@]3([H])C([H])([H])[C@]4(C([H])([H])[H])C(=O)C([H])([H])C([H])([H])[C@@]4([H])C([H])([H])[C@@]23[H])C1([H])[H]


 22 25  0  0  0  0  0  0  0  0999 V2000
   63.0953   -6.7155   -4.4262 C   0  0  0  0  0  0  0  0  0  0  0  0
   64.2162   -7.6999   -4.2146 C   0  0  0  0  0  0  0  0  0  0  0  0
   65.2672   -7.6218   -5.2519 C   0  0  0  0  0  0  0  0  0  0  0  0
   64.6688   -8.0817   -6.5670 C   0  0  0  0  0  0  0  0  0  0  0  0
   65.6195   -7.8053   -7.6928 C   0  0  0  0  0  0  0  0  0  0  0  0
   65.2579   -8.5270   -8.9605 C   0  0  0  0  0  0  0  0  0  0  0  0
   65.0875   -9.9759   -8.6712 C   0  0  0  0  0  0  0  0  0  0  0  0
   64.8552  -10.7748   -9.9226 C   0  0  0  0  0  0  0  0  0  0  0  0
   63.5157  -10.5090  -10.5236 C   0  0  0  0  0  0  0  0  0  0  0  0
   63.2889  -11.5160  -11.4892 O   0  0  0  0  0  0  0  0  0  0  0  0
   62.3762  -10.5470   -9.5693 C   0  0  0  0  0  0  0  0  0  0  0  0
   62.6252   -9.7870   -8.2938 C   0  0  0  0  0  0  0  0  0  0  0  0
   63.9453  -10.2007   -7.7074 C   0  0  0  0  0  0  0  0  0  0  0  0
   63.9061  -11.7093   -7.4541 C   0  0  0  0  0  0  0  0  0  0  0  0
   64.2769   -9.5158   -6.4315 C   0  0  0  0  0  0  0  0  0  0  0  0
   63.1110   -9.5427   -5.4294 C   0  0  0  0  0  0  0  0  0  0  0  0
   63.6940   -9.1398   -4.1405 C   0  0  0  0  0  0  0  0  0  0  0  0
   62.8039   -9.0444   -2.9662 C   0  0  0  0  0  0  0  0  0  0  0  0
   63.6925   -8.2750   -1.9747 C   0  0  0  0  0  0  0  0  0  0  0  0
   64.6795   -7.5506   -2.8199 C   0  0  0  0  0  0  0  0  0  0  0  0
   65.6691   -6.9524   -2.4644 O   0  0  0  0  0  0  0  0  0  0  0  0
   62.8936  -12.3208  -11.0614 H   0  0  0  0  0  0  0  0  0  0  0  0
  2  1  1  0  0  0
  2  3  1  0  0  0
  3  4  1  0  0  0
  4  5  1  0  0  0
  5  6  1  0  0  0
  6  7  1  0  0  0
  7  8  1  0  0  0
  8  9  1  0  0  0
  9 10  1  0  0  0
  9 11  1  0  0  0
 11 12  1  0  0  0
 12 13  1  0  0  0
 13 14  1  0  0  0
 13 15  1  0  0  0
 15 16  1  0  0  0
 16 17  1  0  0  0
 17 18  1  0  0  0
 18 19  1  0  0  0
 19 20  1  0  0  0
 20 21  2  0  0  0
 17  2  1  0  0  0
 20  2  1  0  0  0
 15  4  1  0  0  0
 13  7  1  0  0  0
 10 22  1  0  0  0
M  END
> <minimizedAffinity>
-1.99611

> <CNNscore>
0.6993090510

> <CNNaffinity>
4.2896556854

> <CNN_VS>
2.9997949600

> <CNNaffinity_variance>
0.2057988644

$$$$
[H]O[C@@]1([H])C([H])([H])C([H])([H])[C@@]2(C([H])([H])[H])[C@]([H])(C([H])([H])C([H])([H])[C@]3([H])C([H])([H])[C@]4(C([H])([H])[H])C(=O)C([H])([H])C([H])([H])[C@@]4([H])C([H])([H])[C@@]23[H])C1([H])[H]


 22 25  0  0  0  0  0  0  0  0999 V2000
   57.8799   -2.3643  -15.5276 C   0  0  0  0  0  0  0  0  0  0  0  0
   56.7153   -3.3018  -15.3405 C   0  0  0  0  0  0  0  0  0  0  0  0
   55.9085   -3.0000  -14.1386 C   0  0  0  0  0  0  0  0  0  0  0  0
   56.7584   -3.2824  -12.9151 C   0  0  0  0  0  0  0  0  0  0  0  0
   56.0731   -2.7772  -11.6812 C   0  0  0  0  0  0  0  0  0  0  0  0
   56.6752   -3.3112  -10.4118 C   0  0  0  0  0  0  0  0  0  0  0  0
   56.7446   -4.7950  -10.4856 C   0  0  0  0  0  0  0  0  0  0  0  0
   57.2150   -5.4000   -9.1929 C   0  0  0  0  0  0  0  0  0  0  0  0
   58.6571   -5.1228   -8.9296 C   0  0  0  0  0  0  0  0  0  0  0  0
   59.0568   -5.9774   -7.8772 O   0  0  0  0  0  0  0  0  0  0  0  0
   59.5690   -5.3772  -10.0761 C   0  0  0  0  0  0  0  0  0  0  0  0
   59.0763   -4.8134  -11.3822 C   0  0  0  0  0  0  0  0  0  0  0  0
   57.6524   -5.2352  -11.6108 C   0  0  0  0  0  0  0  0  0  0  0  0
   57.5996   -6.7645  -11.6132 C   0  0  0  0  0  0  0  0  0  0  0  0
   57.0771   -4.7406  -12.8879 C   0  0  0  0  0  0  0  0  0  0  0  0
   58.0048   -4.9932  -14.0878 C   0  0  0  0  0  0  0  0  0  0  0  0
   57.1740   -4.7637  -15.2796 C   0  0  0  0  0  0  0  0  0  0  0  0
   57.7992   -4.9065  -16.6097 C   0  0  0  0  0  0  0  0  0  0  0  0
   56.7414   -4.2510  -17.5131 C   0  0  0  0  0  0  0  0  0  0  0  0
   55.9728   -3.3460  -16.6167 C   0  0  0  0  0  0  0  0  0  0  0  0
   54.9458   -2.7536  -16.8575 O   0  0  0  0  0  0  0  0  0  0  0  0
   59.3329   -6.8613   -8.2370 H   0  0  0  0  0  0  0  0  0  0  0  0
  2  1  1  0  0  0
  2  3  1  0  0  0
  3  4  1  0  0  0
  4  5  1  0  0  0
  5  6  1  0  0  0
  6  7  1  0  0  0
  7  8  1  0  0  0
  8  9  1  0  0  0
  9 10  1  0  0  0
  9 11  1  0  0  0
 11 12  1  0  0  0
 12 13  1  0  0  0
 13 14  1  0  0  0
 13 15  1  0  0  0
 15 16  1  0  0  0
 16 17  1  0  0  0
 17 18  1  0  0  0
 18 19  1  0  0  0
 19 20  1  0  0  0
 20 21  2  0  0  0
 17  2  1  0  0  0
 20  2  1  0  0  0
 15  4  1  0  0  0
 13  7  1  0  0  0
 10 22  1  0  0  0
M  END
> <minimizedAffinity>
8.76894

> <CNNscore>
0.6115540266

> <CNNaffinity>
4.8451213837

> <CNN_VS>
2.9630534649

> <CNNaffinity_variance>
0.3703382015

$$$$
[H]O[C@@]1([H])C([H])([H])C([H])([H])[C@@]2(C([H])([H])[H])[C@]([H])(C([H])([H])C([H])([H])[C@]3([H])C([H])([H])[C@]4(C([H])([H])[H])C(=O)C([H])([H])C([H])([H])[C@@]4([H])C([H])([H])[C@@]23[H])C1([H])[H]


 22 25  0  0  0  0  0  0  0  0999 V2000
   62.3740   -7.7823   -1.6246 C   0  0  0  0  0  0  0  0  0  0  0  0
   63.7729   -8.0682   -2.1059 C   0  0  0  0  0  0  0  0  0  0  0  0
   64.1426   -7.3040   -3.3167 C   0  0  0  0  0  0  0  0  0  0  0  0
   63.2903   -7.8007   -4.4682 C   0  0  0  0  0  0  0  0  0  0  0  0
   63.4597   -6.9075   -5.6602 C   0  0  0  0  0  0  0  0  0  0  0  0
   62.9261   -7.5104   -6.9293 C   0  0  0  0  0  0  0  0  0  0  0  0
   63.5121   -8.8646   -7.1157 C   0  0  0  0  0  0  0  0  0  0  0  0
   63.1214   -9.4686   -8.4351 C   0  0  0  0  0  0  0  0  0  0  0  0
   61.6778   -9.8426   -8.4815 C   0  0  0  0  0  0  0  0  0  0  0  0
   61.4997  -10.6627   -9.6188 O   0  0  0  0  0  0  0  0  0  0  0  0
   61.1848  -10.6059   -7.3046 C   0  0  0  0  0  0  0  0  0  0  0  0
   61.6152  -10.0298   -5.9820 C   0  0  0  0  0  0  0  0  0  0  0  0
   63.0982   -9.7883   -5.9934 C   0  0  0  0  0  0  0  0  0  0  0  0
   63.7990  -11.1199   -6.2714 C   0  0  0  0  0  0  0  0  0  0  0  0
   63.6263   -9.2332   -4.7208 C   0  0  0  0  0  0  0  0  0  0  0  0
   63.1279  -10.0079   -3.4896 C   0  0  0  0  0  0  0  0  0  0  0  0
   63.9803   -9.5632   -2.3765 C   0  0  0  0  0  0  0  0  0  0  0  0
   63.7266  -10.1189   -1.0321 C   0  0  0  0  0  0  0  0  0  0  0  0
   64.5462   -9.1626   -0.1499 C   0  0  0  0  0  0  0  0  0  0  0  0
   64.6791   -7.9151   -0.9495 C   0  0  0  0  0  0  0  0  0  0  0  0
   65.3792   -6.9549   -0.7227 O   0  0  0  0  0  0  0  0  0  0  0  0
   61.6975  -11.6102   -9.3948 H   0  0  0  0  0  0  0  0  0  0  0  0
  2  1  1  0  0  0
  2  3  1  0  0  0
  3  4  1  0  0  0
  4  5  1  0  0  0
  5  6  1  0  0  0
  6  7  1  0  0  0
  7  8  1  0  0  0
  8  9  1  0  0  0
  9 10  1  0  0  0
  9 11  1  0  0  0
 11 12  1  0  0  0
 12 13  1  0  0  0
 13 14  1  0  0  0
 13 15  1  0  0  0
 15 16  1  0  0  0
 16 17  1  0  0  0
 17 18  1  0  0  0
 18 19  1  0  0  0
 19 20  1  0  0  0
 20 21  2  0  0  0
 17  2  1  0  0  0
 20  2  1  0  0  0
 15  4  1  0  0  0
 13  7  1  0  0  0
 10 22  1  0  0  0
M  END
> <minimizedAffinity>
-2.79532

> <CNNscore>
0.6091300249

> <CNNaffinity>
4.1938338280

> <CNN_VS>
2.5545899868

> <CNNaffinity_variance>
0.1374446154

$$$$
[H]O[C@@]1([H])C([H])([H])C([H])([H])[C@@]2(C([H])([H])[H])[C@]([H])(C([H])([H])C([H])([H])[C@]3([H])C([H])([H])[C@]4(C([H])([H])[H])C(=O)C([H])([H])C([H])([H])[C@@]4([H])C([H])([H])[C@@]23[H])C1([H])[H]


 22 25  0  0  0  0  0  0  0  0999 V2000
   62.4272   -3.9058  -15.8997 C   0  0  0  0  0  0  0  0  0  0  0  0
   63.9282   -4.0104  -15.8208 C   0  0  0  0  0  0  0  0  0  0  0  0
   64.4485   -5.3173  -16.2769 C   0  0  0  0  0  0  0  0  0  0  0  0
   63.9924   -6.3773  -15.2934 C   0  0  0  0  0  0  0  0  0  0  0  0
   64.2952   -7.7445  -15.8287 C   0  0  0  0  0  0  0  0  0  0  0  0
   64.1898   -8.8224  -14.7867 C   0  0  0  0  0  0  0  0  0  0  0  0
   65.0176   -8.4509  -13.6081 C   0  0  0  0  0  0  0  0  0  0  0  0
   65.0612   -9.5497  -12.5839 C   0  0  0  0  0  0  0  0  0  0  0  0
   63.7529   -9.7286  -11.8893 C   0  0  0  0  0  0  0  0  0  0  0  0
   63.9914  -10.5501  -10.7641 O   0  0  0  0  0  0  0  0  0  0  0  0
   63.1229   -8.4755  -11.3960 C   0  0  0  0  0  0  0  0  0  0  0  0
   63.1211   -7.3575  -12.4043 C   0  0  0  0  0  0  0  0  0  0  0  0
   64.5027   -7.1822  -12.9683 C   0  0  0  0  0  0  0  0  0  0  0  0
   65.4586   -6.8826  -11.8116 C   0  0  0  0  0  0  0  0  0  0  0  0
   64.6098   -6.0864  -13.9656 C   0  0  0  0  0  0  0  0  0  0  0  0
   63.9634   -4.7801  -13.4758 C   0  0  0  0  0  0  0  0  0  0  0  0
   64.4374   -3.7388  -14.4001 C   0  0  0  0  0  0  0  0  0  0  0  0
   63.9617   -2.3549  -14.2025 C   0  0  0  0  0  0  0  0  0  0  0  0
   64.3759   -1.7001  -15.5308 C   0  0  0  0  0  0  0  0  0  0  0  0
   64.4911   -2.8245  -16.4982 C   0  0  0  0  0  0  0  0  0  0  0  0
   64.9484   -2.8011  -17.6180 O   0  0  0  0  0  0  0  0  0  0  0  0
   64.2821   -9.9989   -9.9904 H   0  0  0  0  0  0  0  0  0  0  0  0
  2  1  1  0  0  0
  2  3  1  0  0  0
  3  4  1  0  0  0
  4  5  1  0  0  0
  5  6  1  0  0  0
  6  7  1  0  0  0
  7  8  1  0  0  0
  8  9  1  0  0  0
  9 10  1  0  0  0
  9 11  1  0  0  0
 11 12  1  0  0  0
 12 13  1  0  0  0
 13 14  1  0  0  0
 13 15  1  0  0  0
 15 16  1  0  0  0
 16 17  1  0  0  0
 17 18  1  0  0  0
 18 19  1  0  0  0
 19 20  1  0  0  0
 20 21  2  0  0  0
 17  2  1  0  0  0
 20  2  1  0  0  0
 15  4  1  0  0  0
 13  7  1  0  0  0
 10 22  1  0  0  0
M  END
> <minimizedAffinity>
-1.80890

> <CNNscore>
0.6065859199

> <CNNaffinity>
3.8492684364

> <CNN_VS>
2.3349120617

> <CNNaffinity_variance>
0.0411667265

$$$$
[H]O[C@@]1([H])C([H])([H])C([H])([H])[C@@]2(C([H])([H])[H])[C@]([H])(C([H])([H])C([H])([H])[C@]3([H])C([H])([H])[C@]4(C([H])([H])[H])C(=O)C([H])([H])C([H])([H])[C@@]4([H])C([H])([H])[C@@]23[H])C1([H])[H]


 22 25  0  0  0  0  0  0  0  0999 V2000
   63.8635   -9.8872   -8.6349 C   0  0  0  0  0  0  0  0  0  0  0  0
   62.3644   -9.9733   -8.7586 C   0  0  0  0  0  0  0  0  0  0  0  0
   61.6470   -9.1264   -7.7814 C   0  0  0  0  0  0  0  0  0  0  0  0
   61.8959   -9.6889   -6.3955 C   0  0  0  0  0  0  0  0  0  0  0  0
   61.3849   -8.7407   -5.3528 C   0  0  0  0  0  0  0  0  0  0  0  0
   61.2835   -9.3632   -3.9886 C   0  0  0  0  0  0  0  0  0  0  0  0
   60.4985  -10.6232   -4.0792 C   0  0  0  0  0  0  0  0  0  0  0  0
   60.2472  -11.2266   -2.7261 C   0  0  0  0  0  0  0  0  0  0  0  0
   61.4894  -11.7821   -2.1142 C   0  0  0  0  0  0  0  0  0  0  0  0
   61.0892  -12.5786   -1.0172 O   0  0  0  0  0  0  0  0  0  0  0  0
   62.3051  -12.6429   -3.0111 C   0  0  0  0  0  0  0  0  0  0  0  0
   62.5179  -12.0621   -4.3836 C   0  0  0  0  0  0  0  0  0  0  0  0
   61.1994  -11.6308   -4.9610 C   0  0  0  0  0  0  0  0  0  0  0  0
   60.2767  -12.8504   -5.0131 C   0  0  0  0  0  0  0  0  0  0  0  0
   61.3010  -11.0564   -6.3271 C   0  0  0  0  0  0  0  0  0  0  0  0
   62.1417  -11.9310   -7.2718 C   0  0  0  0  0  0  0  0  0  0  0  0
   61.8706  -11.4187   -8.6237 C   0  0  0  0  0  0  0  0  0  0  0  0
   62.5635  -12.0486   -9.7655 C   0  0  0  0  0  0  0  0  0  0  0  0
   62.2978  -11.0255  -10.8823 C   0  0  0  0  0  0  0  0  0  0  0  0
   62.0232   -9.7445  -10.1775 C   0  0  0  0  0  0  0  0  0  0  0  0
   61.6052   -8.7103  -10.6458 O   0  0  0  0  0  0  0  0  0  0  0  0
   60.8738  -13.4998   -1.3207 H   0  0  0  0  0  0  0  0  0  0  0  0
  2  1  1  0  0  0
  2  3  1  0  0  0
  3  4  1  0  0  0
  4  5  1  0  0  0
  5  6  1  0  0  0
  6  7  1  0  0  0
  7  8  1  0  0  0
  8  9  1  0  0  0
  9 10  1  0  0  0
  9 11  1  0  0  0
 11 12  1  0  0  0
 12 13  1  0  0  0
 13 14  1  0  0  0
 13 15  1  0  0  0
 15 16  1  0  0  0
 16 17  1  0  0  0
 17 18  1  0  0  0
 18 19  1  0  0  0
 19 20  1  0  0  0
 20 21  2  0  0  0
 17  2  1  0  0  0
 20  2  1  0  0  0
 15  4  1  0  0  0
 13  7  1  0  0  0
 10 22  1  0  0  0
M  END
> <minimizedAffinity>
-3.58080

> <CNNscore>
0.5773681998

> <CNNaffinity>
4.5279164314

> <CNN_VS>
2.6142749786

> <CNNaffinity_variance>
0.2025168836

$$$$
[H]O[C@@]1([H])C([H])([H])C([H])([H])[C@@]2(C([H])([H])[H])[C@]([H])(C([H])([H])C([H])([H])[C@]3([H])C([H])([H])[C@]4(C([H])([H])[H])C(=O)C([H])([H])C([H])([H])[C@@]4([H])C([H])([H])[C@@]23[H])C1([H])[H]


 22 25  0  0  0  0  0  0  0  0999 V2000
   61.5693   -9.7425   -8.5560 C   0  0  0  0  0  0  0  0  0  0  0  0
   62.0449  -10.9960   -7.8684 C   0  0  0  0  0  0  0  0  0  0  0  0
   61.3383  -11.2711   -6.5988 C   0  0  0  0  0  0  0  0  0  0  0  0
   61.7121  -10.1884   -5.6053 C   0  0  0  0  0  0  0  0  0  0  0  0
   60.8500  -10.2880   -4.3828 C   0  0  0  0  0  0  0  0  0  0  0  0
   61.3729   -9.4842   -3.2256 C   0  0  0  0  0  0  0  0  0  0  0  0
   62.7949   -9.8435   -2.9786 C   0  0  0  0  0  0  0  0  0  0  0  0
   63.3384   -9.1713   -1.7494 C   0  0  0  0  0  0  0  0  0  0  0  0
   63.5099   -7.7011   -1.9369 C   0  0  0  0  0  0  0  0  0  0  0  0
   64.2969   -7.2360   -0.8589 O   0  0  0  0  0  0  0  0  0  0  0  0
   64.1986   -7.3002   -3.1921 C   0  0  0  0  0  0  0  0  0  0  0  0
   63.6882   -8.0080   -4.4189 C   0  0  0  0  0  0  0  0  0  0  0  0
   63.6534   -9.4896   -4.1711 C   0  0  0  0  0  0  0  0  0  0  0  0
   65.0687   -9.9498   -3.8153 C   0  0  0  0  0  0  0  0  0  0  0  0
   63.1770  -10.2821   -5.3337 C   0  0  0  0  0  0  0  0  0  0  0  0
   63.8764   -9.8831   -6.6436 C   0  0  0  0  0  0  0  0  0  0  0  0
   63.5541  -10.9527   -7.6004 C   0  0  0  0  0  0  0  0  0  0  0  0
   64.0704  -10.8405   -8.9794 C   0  0  0  0  0  0  0  0  0  0  0  0
   63.2366  -11.9113   -9.7025 C   0  0  0  0  0  0  0  0  0  0  0  0
   62.0189  -12.0854   -8.8657 C   0  0  0  0  0  0  0  0  0  0  0  0
   61.1645  -12.9366   -8.9601 O   0  0  0  0  0  0  0  0  0  0  0  0
   65.2627   -7.3357   -1.0692 H   0  0  0  0  0  0  0  0  0  0  0  0
  2  1  1  0  0  0
  2  3  1  0  0  0
  3  4  1  0  0  0
  4  5  1  0  0  0
  5  6  1  0  0  0
  6  7  1  0  0  0
  7  8  1  0  0  0
  8  9  1  0  0  0
  9 10  1  0  0  0
  9 11  1  0  0  0
 11 12  1  0  0  0
 12 13  1  0  0  0
 13 14  1  0  0  0
 13 15  1  0  0  0
 15 16  1  0  0  0
 16 17  1  0  0  0
 17 18  1  0  0  0
 18 19  1  0  0  0
 19 20  1  0  0  0
 20 21  2  0  0  0
 17  2  1  0  0  0
 20  2  1  0  0  0
 15  4  1  0  0  0
 13  7  1  0  0  0
 10 22  1  0  0  0
M  END
> <minimizedAffinity>
-2.73140

> <CNNscore>
0.5722036958

> <CNNaffinity>
4.3007535934

> <CNN_VS>
2.4609069824

> <CNNaffinity_variance>
0.2323974669

$$$$
[H]O[C@@]1([H])C([H])([H])C([H])([H])[C@@]2(C([H])([H])[H])[C@]([H])(C([H])([H])C([H])([H])[C@]3([H])C([H])([H])[C@]4(C([H])([H])[H])C(=O)C([H])([H])C([H])([H])[C@@]4([H])C([H])([H])[C@@]23[H])C1([H])[H]


 22 25  0  0  0  0  0  0  0  0999 V2000
   61.6310   -9.0565  -10.4264 C   0  0  0  0  0  0  0  0  0  0  0  0
   62.4862  -10.1940   -9.9314 C   0  0  0  0  0  0  0  0  0  0  0  0
   61.8944  -10.9145   -8.7837 C   0  0  0  0  0  0  0  0  0  0  0  0
   61.8756   -9.9748   -7.5939 C   0  0  0  0  0  0  0  0  0  0  0  0
   61.0796  -10.5740   -6.4738 C   0  0  0  0  0  0  0  0  0  0  0  0
   61.2917   -9.8753   -5.1602 C   0  0  0  0  0  0  0  0  0  0  0  0
   62.7491   -9.7951   -4.8745 C   0  0  0  0  0  0  0  0  0  0  0  0
   63.0235   -9.2253   -3.5113 C   0  0  0  0  0  0  0  0  0  0  0  0
   62.7006   -7.7709   -3.4300 C   0  0  0  0  0  0  0  0  0  0  0  0
   63.2752   -7.2863   -2.2330 O   0  0  0  0  0  0  0  0  0  0  0  0
   63.2337   -6.9421   -4.5434 C   0  0  0  0  0  0  0  0  0  0  0  0
   63.0023   -7.5347   -5.9079 C   0  0  0  0  0  0  0  0  0  0  0  0
   63.4572   -8.9667   -5.9217 C   0  0  0  0  0  0  0  0  0  0  0  0
   64.9403   -9.0027   -5.5470 C   0  0  0  0  0  0  0  0  0  0  0  0
   63.2852   -9.6389   -7.2352 C   0  0  0  0  0  0  0  0  0  0  0  0
   63.8297   -8.7981   -8.4018 C   0  0  0  0  0  0  0  0  0  0  0  0
   63.8922   -9.7160   -9.5494 C   0  0  0  0  0  0  0  0  0  0  0  0
   64.3598   -9.1877  -10.8467 C   0  0  0  0  0  0  0  0  0  0  0  0
   63.9373  -10.3156  -11.8026 C   0  0  0  0  0  0  0  0  0  0  0  0
   62.8354  -11.0268  -11.1004 C   0  0  0  0  0  0  0  0  0  0  0  0
   62.3124  -12.0751  -11.4025 O   0  0  0  0  0  0  0  0  0  0  0  0
   64.2222   -7.0274   -2.3856 H   0  0  0  0  0  0  0  0  0  0  0  0
  2  1  1  0  0  0
  2  3  1  0  0  0
  3  4  1  0  0  0
  4  5  1  0  0  0
  5  6  1  0  0  0
  6  7  1  0  0  0
  7  8  1  0  0  0
  8  9  1  0  0  0
  9 10  1  0  0  0
  9 11  1  0  0  0
 11 12  1  0  0  0
 12 13  1  0  0  0
 13 14  1  0  0  0
 13 15  1  0  0  0
 15 16  1  0  0  0
 16 17  1  0  0  0
 17 18  1  0  0  0
 18 19  1  0  0  0
 19 20  1  0  0  0
 20 21  2  0  0  0
 17  2  1  0  0  0
 20  2  1  0  0  0
 15  4  1  0  0  0
 13  7  1  0  0  0
 10 22  1  0  0  0
M  END
> <minimizedAffinity>
-3.41262

> <CNNscore>
0.5667642951

> <CNNaffinity>
4.2544441223

> <CNN_VS>
2.4112670422

> <CNNaffinity_variance>
0.1086857095

$$$$
[H]O[C@@]1([H])C([H])([H])C([H])([H])[C@@]2(C([H])([H])[H])[C@]([H])(C([H])([H])C([H])([H])[C@]3([H])C([H])([H])[C@]4(C([H])([H])[H])C(=O)C([H])([H])C([H])([H])[C@@]4([H])C([H])([H])[C@@]23[H])C1([H])[H]


 22 25  0  0  0  0  0  0  0  0999 V2000
   62.4283  -10.8909   -3.4091 C   0  0  0  0  0  0  0  0  0  0  0  0
   61.0817  -10.8149   -4.0808 C   0  0  0  0  0  0  0  0  0  0  0  0
   60.8156  -11.9517   -4.9884 C   0  0  0  0  0  0  0  0  0  0  0  0
   61.7737  -11.8561   -6.1597 C   0  0  0  0  0  0  0  0  0  0  0  0
   61.7042  -13.1036   -6.9881 C   0  0  0  0  0  0  0  0  0  0  0  0
   62.3565  -12.9548   -8.3339 C   0  0  0  0  0  0  0  0  0  0  0  0
   61.8033  -11.7566   -9.0198 C   0  0  0  0  0  0  0  0  0  0  0  0
   62.3178  -11.6269  -10.4257 C   0  0  0  0  0  0  0  0  0  0  0  0
   63.7633  -11.2597  -10.4680 C   0  0  0  0  0  0  0  0  0  0  0  0
   64.0519  -10.8696  -11.7955 O   0  0  0  0  0  0  0  0  0  0  0  0
   64.1552  -10.1326   -9.5810 C   0  0  0  0  0  0  0  0  0  0  0  0
   63.6010  -10.2359   -8.1850 C   0  0  0  0  0  0  0  0  0  0  0  0
   62.1229  -10.4988   -8.2452 C   0  0  0  0  0  0  0  0  0  0  0  0
   61.4634   -9.3554   -9.0193 C   0  0  0  0  0  0  0  0  0  0  0  0
   61.4762  -10.6014   -6.9118 C   0  0  0  0  0  0  0  0  0  0  0  0
   61.8685   -9.4450   -5.9774 C   0  0  0  0  0  0  0  0  0  0  0  0
   60.9144   -9.5047   -4.8596 C   0  0  0  0  0  0  0  0  0  0  0  0
   61.0508   -8.5213   -3.7665 C   0  0  0  0  0  0  0  0  0  0  0  0
   60.1452   -9.1397   -2.6885 C   0  0  0  0  0  0  0  0  0  0  0  0
   60.0729  -10.5868   -3.0261 C   0  0  0  0  0  0  0  0  0  0  0  0
   59.3457  -11.4283   -2.5501 O   0  0  0  0  0  0  0  0  0  0  0  0
   63.8440   -9.9067  -11.9246 H   0  0  0  0  0  0  0  0  0  0  0  0
  2  1  1  0  0  0
  2  3  1  0  0  0
  3  4  1  0  0  0
  4  5  1  0  0  0
  5  6  1  0  0  0
  6  7  1  0  0  0
  7  8  1  0  0  0
  8  9  1  0  0  0
  9 10  1  0  0  0
  9 11  1  0  0  0
 11 12  1  0  0  0
 12 13  1  0  0  0
 13 14  1  0  0  0
 13 15  1  0  0  0
 15 16  1  0  0  0
 16 17  1  0  0  0
 17 18  1  0  0  0
 18 19  1  0  0  0
 19 20  1  0  0  0
 20 21  2  0  0  0
 17  2  1  0  0  0
 20  2  1  0  0  0
 15  4  1  0  0  0
 13  7  1  0  0  0
 10 22  1  0  0  0
M  END
> <minimizedAffinity>
-3.58713

> <CNNscore>
0.5343633294

> <CNNaffinity>
4.4370660782

> <CNN_VS>
2.3710052967

> <CNNaffinity_variance>
0.1176720634

$$$$
[H]O[C@@]1([H])C([H])([H])C([H])([H])[C@@]2(C([H])([H])[H])[C@]([H])(C([H])([H])C([H])([H])[C@]3([H])C([H])([H])[C@]4(C([H])([H])[H])C(=O)C([H])([H])C([H])([H])[C@@]4([H])C([H])([H])[C@@]23[H])C1([H])[H]


 22 25  0  0  0  0  0  0  0  0999 V2000
   64.6070   -7.6634  -10.0886 C   0  0  0  0  0  0  0  0  0  0  0  0
   63.1762   -7.9657  -10.4513 C   0  0  0  0  0  0  0  0  0  0  0  0
   62.2211   -7.6677   -9.3624 C   0  0  0  0  0  0  0  0  0  0  0  0
   62.4838   -8.6351   -8.2248 C   0  0  0  0  0  0  0  0  0  0  0  0
   61.7026   -8.2308   -7.0109 C   0  0  0  0  0  0  0  0  0  0  0  0
   61.6393   -9.3080   -5.9647 C   0  0  0  0  0  0  0  0  0  0  0  0
   61.1574  -10.5705   -6.5860 C   0  0  0  0  0  0  0  0  0  0  0  0
   60.9448  -11.6529   -5.5656 C   0  0  0  0  0  0  0  0  0  0  0  0
   62.2298  -12.1593   -5.0012 C   0  0  0  0  0  0  0  0  0  0  0  0
   61.9335  -13.3535   -4.3056 O   0  0  0  0  0  0  0  0  0  0  0  0
   63.2778  -12.4812   -6.0055 C   0  0  0  0  0  0  0  0  0  0  0  0
   63.4592  -11.4193   -7.0573 C   0  0  0  0  0  0  0  0  0  0  0  0
   62.1247  -11.0529   -7.6423 C   0  0  0  0  0  0  0  0  0  0  0  0
   61.4971  -12.3167   -8.2344 C   0  0  0  0  0  0  0  0  0  0  0  0
   62.1987  -10.0191   -8.7065 C   0  0  0  0  0  0  0  0  0  0  0  0
   63.2776  -10.3321   -9.7564 C   0  0  0  0  0  0  0  0  0  0  0  0
   63.0016   -9.4269  -10.8824 C   0  0  0  0  0  0  0  0  0  0  0  0
   63.8977   -9.4715  -12.0553 C   0  0  0  0  0  0  0  0  0  0  0  0
   63.4980   -8.1813  -12.7905 C   0  0  0  0  0  0  0  0  0  0  0  0
   62.8989   -7.3088  -11.7450 C   0  0  0  0  0  0  0  0  0  0  0  0
   62.3007   -6.2680  -11.8951 O   0  0  0  0  0  0  0  0  0  0  0  0
   61.9476  -14.1275   -4.9283 H   0  0  0  0  0  0  0  0  0  0  0  0
  2  1  1  0  0  0
  2  3  1  0  0  0
  3  4  1  0  0  0
  4  5  1  0  0  0
  5  6  1  0  0  0
  6  7  1  0  0  0
  7  8  1  0  0  0
  8  9  1  0  0  0
  9 10  1  0  0  0
  9 11  1  0  0  0
 11 12  1  0  0  0
 12 13  1  0  0  0
 13 14  1  0  0  0
 13 15  1  0  0  0
 15 16  1  0  0  0
 16 17  1  0  0  0
 17 18  1  0  0  0
 18 19  1  0  0  0
 19 20  1  0  0  0
 20 21  2  0  0  0
 17  2  1  0  0  0
 20  2  1  0  0  0
 15  4  1  0  0  0
 13  7  1  0  0  0
 10 22  1  0  0  0
M  END
> <minimizedAffinity>
-3.38537

> <CNNscore>
0.5299552083

> <CNNaffinity>
4.2647228241

> <CNN_VS>
2.2601120472

> <CNNaffinity_variance>
0.1040492877

$$$$
[H]c1sc(C([H])([H])[H])nc1C#Cc1c([H])sc(C#N)c1[H]


 15 16  0  0  0  0  0  0  0  0999 V2000
   53.8893   -4.0742   -8.5116 C   0  0  0  0  0  0  0  0  0  0  0  0
   52.8616   -3.8895   -7.9109 C   0  0  0  0  0  0  0  0  0  0  0  0
   56.6997   -3.9749  -12.6045 C   0  0  0  0  0  0  0  0  0  0  0  0
   56.3840   -4.2118  -11.1445 C   0  0  0  0  0  0  0  0  0  0  0  0
   55.2463   -4.0221  -10.5058 N   0  0  0  0  0  0  0  0  0  0  0  0
   55.1602   -4.2850   -9.2296 C   0  0  0  0  0  0  0  0  0  0  0  0
   56.3011   -4.7580   -8.6175 C   0  0  0  0  0  0  0  0  0  0  0  0
   57.4099   -4.7908   -9.9130 S   0  0  0  0  0  0  0  0  0  0  0  0
   51.6148   -3.6365   -7.1718 C   0  0  0  0  0  0  0  0  0  0  0  0
   50.6989   -2.7039   -7.5886 C   0  0  0  0  0  0  0  0  0  0  0  0
   49.4739   -2.8063   -6.4113 S   0  0  0  0  0  0  0  0  0  0  0  0
   50.1407   -4.0193   -5.4216 C   0  0  0  0  0  0  0  0  0  0  0  0
   51.3230   -4.3176   -6.0473 C   0  0  0  0  0  0  0  0  0  0  0  0
   49.5714   -4.5831   -4.2109 C   0  0  0  0  0  0  0  0  0  0  0  0
   49.1337   -5.0319   -3.2319 N   0  0  0  0  0  0  0  0  0  0  0  0
  3  4  1  0  0  0
  4  5  2  0  0  0
  5  6  1  0  0  0
  6  7  2  0  0  0
  7  8  1  0  0  0
  6  1  1  0  0  0
  1  2  3  0  0  0
  2  9  1  0  0  0
  9 10  2  0  0  0
 10 11  1  0  0  0
 11 12  1  0  0  0
 12 13  2  0  0  0
 12 14  1  0  0  0
 14 15  3  0  0  0
  8  4  1  0  0  0
 13  9  1  0  0  0
M  END
> <minimizedAffinity>
-6.95103

> <CNNscore>
0.7134200335

> <CNNaffinity>
5.9765248299

> <CNN_VS>
4.2637724876

> <CNNaffinity_variance>
0.2693516016

$$$$
[H]c1sc(C([H])([H])[H])nc1C#Cc1c([H])sc(C#N)c1[H]


 15 16  0  0  0  0  0  0  0  0999 V2000
   54.1683   -4.1726   -9.0449 C   0  0  0  0  0  0  0  0  0  0  0  0
   55.0829   -4.1707   -9.8291 C   0  0  0  0  0  0  0  0  0  0  0  0
   50.0267   -2.2518   -7.0912 C   0  0  0  0  0  0  0  0  0  0  0  0
   51.1474   -3.2542   -7.2548 C   0  0  0  0  0  0  0  0  0  0  0  0
   52.1568   -3.2310   -8.1027 N   0  0  0  0  0  0  0  0  0  0  0  0
   53.0378   -4.1949   -8.0982 C   0  0  0  0  0  0  0  0  0  0  0  0
   52.8462   -5.2033   -7.1781 C   0  0  0  0  0  0  0  0  0  0  0  0
   51.4214   -4.6966   -6.3895 S   0  0  0  0  0  0  0  0  0  0  0  0
   56.1810   -4.1749  -10.8082 C   0  0  0  0  0  0  0  0  0  0  0  0
   57.4689   -4.4896  -10.4551 C   0  0  0  0  0  0  0  0  0  0  0  0
   58.3217   -4.3473  -11.9214 S   0  0  0  0  0  0  0  0  0  0  0  0
   57.0400   -3.8954  -12.9453 C   0  0  0  0  0  0  0  0  0  0  0  0
   55.9611   -3.8670  -12.1006 C   0  0  0  0  0  0  0  0  0  0  0  0
   57.1036   -3.6138  -14.3682 C   0  0  0  0  0  0  0  0  0  0  0  0
   57.1538   -3.3681  -15.5032 N   0  0  0  0  0  0  0  0  0  0  0  0
  3  4  1  0  0  0
  4  5  2  0  0  0
  5  6  1  0  0  0
  6  7  2  0  0  0
  7  8  1  0  0  0
  6  1  1  0  0  0
  1  2  3  0  0  0
  2  9  1  0  0  0
  9 10  2  0  0  0
 10 11  1  0  0  0
 11 12  1  0  0  0
 12 13  2  0  0  0
 12 14  1  0  0  0
 14 15  3  0  0  0
  8  4  1  0  0  0
 13  9  1  0  0  0
M  END
> <minimizedAffinity>
-6.37790

> <CNNscore>
0.6382187605

> <CNNaffinity>
5.2504224777

> <CNN_VS>
3.3509180546

> <CNNaffinity_variance>
0.1964825392

$$$$
[H]c1sc(C([H])([H])[H])nc1C#Cc1c([H])sc(C#N)c1[H]


 15 16  0  0  0  0  0  0  0  0999 V2000
   53.9483   -4.0829   -8.4975 C   0  0  0  0  0  0  0  0  0  0  0  0
   52.9129   -3.9104   -7.9062 C   0  0  0  0  0  0  0  0  0  0  0  0
   58.7193   -5.4522   -8.6443 C   0  0  0  0  0  0  0  0  0  0  0  0
   57.4091   -4.9294   -9.1900 C   0  0  0  0  0  0  0  0  0  0  0  0
   56.2658   -4.7508   -8.5582 N   0  0  0  0  0  0  0  0  0  0  0  0
   55.2289   -4.2842   -9.2005 C   0  0  0  0  0  0  0  0  0  0  0  0
   55.4060   -4.0014  -10.5380 C   0  0  0  0  0  0  0  0  0  0  0  0
   57.0413   -4.4239  -10.7753 S   0  0  0  0  0  0  0  0  0  0  0  0
   51.6593   -3.6750   -7.1729 C   0  0  0  0  0  0  0  0  0  0  0  0
   50.7257   -2.7658   -7.6019 C   0  0  0  0  0  0  0  0  0  0  0  0
   49.4999   -2.8806   -6.4263 S   0  0  0  0  0  0  0  0  0  0  0  0
   50.1888   -4.0690   -5.4221 C   0  0  0  0  0  0  0  0  0  0  0  0
   51.3785   -4.3498   -6.0418 C   0  0  0  0  0  0  0  0  0  0  0  0
   49.6280   -4.6314   -4.2067 C   0  0  0  0  0  0  0  0  0  0  0  0
   49.1912   -5.0692   -3.2224 N   0  0  0  0  0  0  0  0  0  0  0  0
  3  4  1  0  0  0
  4  5  2  0  0  0
  5  6  1  0  0  0
  6  7  2  0  0  0
  7  8  1  0  0  0
  6  1  1  0  0  0
  1  2  3  0  0  0
  2  9  1  0  0  0
  9 10  2  0  0  0
 10 11  1  0  0  0
 11 12  1  0  0  0
 12 13  2  0  0  0
 12 14  1  0  0  0
 14 15  3  0  0  0
  8  4  1  0  0  0
 13  9  1  0  0  0
M  END
> <minimizedAffinity>
-6.89335

> <CNNscore>
0.5747318268

> <CNNaffinity>
5.8081231117

> <CNN_VS>
3.3381133080

> <CNNaffinity_variance>
0.1479995698

$$$$
[H]c1sc(C([H])([H])[H])nc1C#Cc1c([H])sc(C#N)c1[H]


 15 16  0  0  0  0  0  0  0  0999 V2000
   53.8018   -4.6924   -7.5567 C   0  0  0  0  0  0  0  0  0  0  0  0
   54.8614   -4.7457   -8.1273 C   0  0  0  0  0  0  0  0  0  0  0  0
   49.4093   -2.6129   -6.5363 C   0  0  0  0  0  0  0  0  0  0  0  0
   50.5133   -3.6417   -6.4358 C   0  0  0  0  0  0  0  0  0  0  0  0
   51.6700   -3.6740   -7.0679 N   0  0  0  0  0  0  0  0  0  0  0  0
   52.5070   -4.6527   -6.8517 C   0  0  0  0  0  0  0  0  0  0  0  0
   52.1118   -5.6161   -5.9485 C   0  0  0  0  0  0  0  0  0  0  0  0
   50.5737   -5.0494   -5.4772 S   0  0  0  0  0  0  0  0  0  0  0  0
   56.1492   -4.8380   -8.8328 C   0  0  0  0  0  0  0  0  0  0  0  0
   57.2839   -5.3023   -8.2171 C   0  0  0  0  0  0  0  0  0  0  0  0
   58.4606   -5.2067   -9.4434 S   0  0  0  0  0  0  0  0  0  0  0  0
   57.4994   -4.5852  -10.7025 C   0  0  0  0  0  0  0  0  0  0  0  0
   56.2635   -4.4666  -10.1222 C   0  0  0  0  0  0  0  0  0  0  0  0
   57.9158   -4.2666  -12.0564 C   0  0  0  0  0  0  0  0  0  0  0  0
   58.2524   -4.0316  -13.1440 N   0  0  0  0  0  0  0  0  0  0  0  0
  3  4  1  0  0  0
  4  5  2  0  0  0
  5  6  1  0  0  0
  6  7  2  0  0  0
  7  8  1  0  0  0
  6  1  1  0  0  0
  1  2  3  0  0  0
  2  9  1  0  0  0
  9 10  2  0  0  0
 10 11  1  0  0  0
 11 12  1  0  0  0
 12 13  2  0  0  0
 12 14  1  0  0  0
 14 15  3  0  0  0
  8  4  1  0  0  0
 13  9  1  0  0  0
M  END
> <minimizedAffinity>
-6.79126

> <CNNscore>
0.5245143771

> <CNNaffinity>
5.2736907005

> <CNN_VS>
2.7661266327

> <CNNaffinity_variance>
0.3104411960

$$$$
[H]c1sc(C([H])([H])[H])nc1C#Cc1c([H])sc(C#N)c1[H]


 15 16  0  0  0  0  0  0  0  0999 V2000
   53.9097   -4.5533   -7.9043 C   0  0  0  0  0  0  0  0  0  0  0  0
   54.9289   -4.6149   -8.5435 C   0  0  0  0  0  0  0  0  0  0  0  0
   49.5579   -2.4857   -6.7014 C   0  0  0  0  0  0  0  0  0  0  0  0
   50.6783   -3.4993   -6.6310 C   0  0  0  0  0  0  0  0  0  0  0  0
   51.7971   -3.5410   -7.3273 N   0  0  0  0  0  0  0  0  0  0  0  0
   52.6571   -4.5032   -7.1275 C   0  0  0  0  0  0  0  0  0  0  0  0
   52.3259   -5.4398   -6.1719 C   0  0  0  0  0  0  0  0  0  0  0  0
   50.8105   -4.8734   -5.6317 S   0  0  0  0  0  0  0  0  0  0  0  0
   56.1603   -4.7077   -9.3433 C   0  0  0  0  0  0  0  0  0  0  0  0
   56.2363   -4.2139  -10.6211 C   0  0  0  0  0  0  0  0  0  0  0  0
   57.8357   -4.5693  -11.0826 S   0  0  0  0  0  0  0  0  0  0  0  0
   58.3729   -5.3306   -9.6588 C   0  0  0  0  0  0  0  0  0  0  0  0
   57.2700   -5.2866   -8.8464 C   0  0  0  0  0  0  0  0  0  0  0  0
   59.6890   -5.8843   -9.3961 C   0  0  0  0  0  0  0  0  0  0  0  0
   60.7488   -6.3094   -9.1780 N   0  0  0  0  0  0  0  0  0  0  0  0
  3  4  1  0  0  0
  4  5  2  0  0  0
  5  6  1  0  0  0
  6  7  2  0  0  0
  7  8  1  0  0  0
  6  1  1  0  0  0
  1  2  3  0  0  0
  2  9  1  0  0  0
  9 10  2  0  0  0
 10 11  1  0  0  0
 11 12  1  0  0  0
 12 13  2  0  0  0
 12 14  1  0  0  0
 14 15  3  0  0  0
  8  4  1  0  0  0
 13  9  1  0  0  0
M  END
> <minimizedAffinity>
-6.62674

> <CNNscore>
0.4880002439

> <CNNaffinity>
5.2420530319

> <CNN_VS>
2.5581231117

> <CNNaffinity_variance>
0.2324215472

$$$$
[H]c1sc(C([H])([H])[H])nc1C#Cc1c([H])sc(C#N)c1[H]


 15 16  0  0  0  0  0  0  0  0999 V2000
   53.0897   -4.0301   -7.8628 C   0  0  0  0  0  0  0  0  0  0  0  0
   54.1325   -4.2023   -8.4410 C   0  0  0  0  0  0  0  0  0  0  0  0
   49.7905   -4.9879   -4.2771 C   0  0  0  0  0  0  0  0  0  0  0  0
   50.3481   -4.2919   -5.4987 C   0  0  0  0  0  0  0  0  0  0  0  0
   51.4935   -4.5031   -6.1168 N   0  0  0  0  0  0  0  0  0  0  0  0
   51.8096   -3.7969   -7.1687 C   0  0  0  0  0  0  0  0  0  0  0  0
   50.8952   -2.8484   -7.5742 C   0  0  0  0  0  0  0  0  0  0  0  0
   49.6533   -3.0385   -6.4208 S   0  0  0  0  0  0  0  0  0  0  0  0
   55.4107   -4.3838   -9.1466 C   0  0  0  0  0  0  0  0  0  0  0  0
   55.5593   -4.0706  -10.4741 C   0  0  0  0  0  0  0  0  0  0  0  0
   57.1868   -4.4587  -10.7871 S   0  0  0  0  0  0  0  0  0  0  0  0
   57.6438   -5.0058   -9.2420 C   0  0  0  0  0  0  0  0  0  0  0  0
   56.4935   -4.8687   -8.5096 C   0  0  0  0  0  0  0  0  0  0  0  0
   58.9467   -5.4948   -8.8280 C   0  0  0  0  0  0  0  0  0  0  0  0
   59.9954   -5.8877   -8.5164 N   0  0  0  0  0  0  0  0  0  0  0  0
  3  4  1  0  0  0
  4  5  2  0  0  0
  5  6  1  0  0  0
  6  7  2  0  0  0
  7  8  1  0  0  0
  6  1  1  0  0  0
  1  2  3  0  0  0
  2  9  1  0  0  0
  9 10  2  0  0  0
 10 11  1  0  0  0
 11 12  1  0  0  0
 12 13  2  0  0  0
 12 14  1  0  0  0
 14 15  3  0  0  0
  8  4  1  0  0  0
 13  9  1  0  0  0
M  END
> <minimizedAffinity>
-6.81362

> <CNNscore>
0.4851022065

> <CNNaffinity>
5.4047393799

> <CNN_VS>
2.6218509674

> <CNNaffinity_variance>
0.2374950200

$$$$
[H]c1sc(C([H])([H])[H])nc1C#Cc1c([H])sc(C#N)c1[H]


 15 16  0  0  0  0  0  0  0  0999 V2000
   54.3375   -4.6093   -8.5382 C   0  0  0  0  0  0  0  0  0  0  0  0
   53.3747   -4.7145   -7.8217 C   0  0  0  0  0  0  0  0  0  0  0  0
   56.4811   -3.7235  -12.9290 C   0  0  0  0  0  0  0  0  0  0  0  0
   56.4238   -4.0857  -11.4617 C   0  0  0  0  0  0  0  0  0  0  0  0
   55.3691   -4.1768  -10.6757 N   0  0  0  0  0  0  0  0  0  0  0  0
   55.5146   -4.5063   -9.4205 C   0  0  0  0  0  0  0  0  0  0  0  0
   56.8020   -4.7440   -8.9889 C   0  0  0  0  0  0  0  0  0  0  0  0
   57.7063   -4.4784  -10.4104 S   0  0  0  0  0  0  0  0  0  0  0  0
   52.2084   -4.8695   -6.9383 C   0  0  0  0  0  0  0  0  0  0  0  0
   51.8707   -6.0787   -6.3852 C   0  0  0  0  0  0  0  0  0  0  0  0
   50.4807   -5.7160   -5.4721 S   0  0  0  0  0  0  0  0  0  0  0  0
   50.3554   -4.0523   -5.8062 C   0  0  0  0  0  0  0  0  0  0  0  0
   51.4207   -3.8197   -6.6365 C   0  0  0  0  0  0  0  0  0  0  0  0
   49.3506   -3.1263   -5.3156 C   0  0  0  0  0  0  0  0  0  0  0  0
   48.5601   -2.3766   -4.9101 N   0  0  0  0  0  0  0  0  0  0  0  0
  3  4  1  0  0  0
  4  5  2  0  0  0
  5  6  1  0  0  0
  6  7  2  0  0  0
  7  8  1  0  0  0
  6  1  1  0  0  0
  1  2  3  0  0  0
  2  9  1  0  0  0
  9 10  2  0  0  0
 10 11  1  0  0  0
 11 12  1  0  0  0
 12 13  2  0  0  0
 12 14  1  0  0  0
 14 15  3  0  0  0
  8  4  1  0  0  0
 13  9  1  0  0  0
M  END
> <minimizedAffinity>
-6.39929

> <CNNscore>
0.4775948226

> <CNNaffinity>
5.6732759476

> <CNN_VS>
2.7095272541

> <CNNaffinity_variance>
0.3175992072

$$$$
[H]c1sc(C([H])([H])[H])nc1C#Cc1c([H])sc(C#N)c1[H]


 15 16  0  0  0  0  0  0  0  0999 V2000
   53.2905   -4.0696   -7.7590 C   0  0  0  0  0  0  0  0  0  0  0  0
   54.3847   -4.2872   -8.2135 C   0  0  0  0  0  0  0  0  0  0  0  0
   49.6712   -4.8756   -4.4559 C   0  0  0  0  0  0  0  0  0  0  0  0
   50.3500   -4.2174   -5.6364 C   0  0  0  0  0  0  0  0  0  0  0  0
   51.5381   -4.4690   -6.1496 N   0  0  0  0  0  0  0  0  0  0  0  0
   51.9622   -3.7911   -7.1820 C   0  0  0  0  0  0  0  0  0  0  0  0
   51.1116   -2.8280   -7.6810 C   0  0  0  0  0  0  0  0  0  0  0  0
   49.7705   -2.9648   -6.6361 S   0  0  0  0  0  0  0  0  0  0  0  0
   55.7312   -4.5573   -8.7413 C   0  0  0  0  0  0  0  0  0  0  0  0
   56.7318   -5.0686   -7.9541 C   0  0  0  0  0  0  0  0  0  0  0  0
   58.0495   -5.1869   -9.0251 S   0  0  0  0  0  0  0  0  0  0  0  0
   57.3129   -4.5910  -10.4385 C   0  0  0  0  0  0  0  0  0  0  0  0
   56.0351   -4.3104  -10.0298 C   0  0  0  0  0  0  0  0  0  0  0  0
   57.9174   -4.4296  -11.7486 C   0  0  0  0  0  0  0  0  0  0  0  0
   58.4132   -4.3171  -12.7940 N   0  0  0  0  0  0  0  0  0  0  0  0
  3  4  1  0  0  0
  4  5  2  0  0  0
  5  6  1  0  0  0
  6  7  2  0  0  0
  7  8  1  0  0  0
  6  1  1  0  0  0
  1  2  3  0  0  0
  2  9  1  0  0  0
  9 10  2  0  0  0
 10 11  1  0  0  0
 11 12  1  0  0  0
 12 13  2  0  0  0
 12 14  1  0  0  0
 14 15  3  0  0  0
  8  4  1  0  0  0
 13  9  1  0  0  0
M  END
> <minimizedAffinity>
-7.00513

> <CNNscore>
0.4749972224

> <CNNaffinity>
5.4088487625

> <CNN_VS>
2.5691881180

> <CNNaffinity_variance>
0.2452695072

$$$$
[H]c1sc(C([H])([H])[H])nc1C#Cc1c([H])sc(C#N)c1[H]


 15 16  0  0  0  0  0  0  0  0999 V2000
   55.0221   -3.9785   -9.9934 C   0  0  0  0  0  0  0  0  0  0  0  0
   54.0872   -3.9130   -9.2365 C   0  0  0  0  0  0  0  0  0  0  0  0
   57.0856   -3.6625  -14.4992 C   0  0  0  0  0  0  0  0  0  0  0  0
   57.0410   -3.9181  -13.0091 C   0  0  0  0  0  0  0  0  0  0  0  0
   56.0150   -3.8219  -12.1866 N   0  0  0  0  0  0  0  0  0  0  0  0
   56.1672   -4.0848  -10.9166 C   0  0  0  0  0  0  0  0  0  0  0  0
   57.4305   -4.4568  -10.5093 C   0  0  0  0  0  0  0  0  0  0  0  0
   58.3044   -4.4024  -11.9730 S   0  0  0  0  0  0  0  0  0  0  0  0
   52.9573   -3.8545   -8.2960 C   0  0  0  0  0  0  0  0  0  0  0  0
   51.9834   -2.8925   -8.3884 C   0  0  0  0  0  0  0  0  0  0  0  0
   50.9408   -3.2670   -7.0961 S   0  0  0  0  0  0  0  0  0  0  0  0
   51.7526   -4.6245   -6.4688 C   0  0  0  0  0  0  0  0  0  0  0  0
   52.8353   -4.7519   -7.2993 C   0  0  0  0  0  0  0  0  0  0  0  0
   51.3674   -5.4339   -5.3267 C   0  0  0  0  0  0  0  0  0  0  0  0
   51.0614   -6.0654   -4.3999 N   0  0  0  0  0  0  0  0  0  0  0  0
  3  4  1  0  0  0
  4  5  2  0  0  0
  5  6  1  0  0  0
  6  7  2  0  0  0
  7  8  1  0  0  0
  6  1  1  0  0  0
  1  2  3  0  0  0
  2  9  1  0  0  0
  9 10  2  0  0  0
 10 11  1  0  0  0
 11 12  1  0  0  0
 12 13  2  0  0  0
 12 14  1  0  0  0
 14 15  3  0  0  0
  8  4  1  0  0  0
 13  9  1  0  0  0
M  END
> <minimizedAffinity>
-6.10983

> <CNNscore>
0.3686674535

> <CNNaffinity>
5.1387476921

> <CNN_VS>
1.8944890499

> <CNNaffinity_variance>
0.2314081639

$$$$
[H]c1c([H])c(N2C(N([H])[H])=NC(N([H])[H])=NC2(C([H])([H])[H])C([H])([H])[H])c([H])c(C([H])([H])Oc2c([H])c([H])c(Cl)c([H])c2Cl)c1[H]


 30 32  0  0  0  0  0  0  0  0999 V2000
   54.9494   -4.4442   -8.0869 C   0  0  0  0  0  0  0  0  0  0  0  0
   55.7797   -4.6765   -7.0073 C   0  0  0  0  0  0  0  0  0  0  0  0
   57.1120   -4.9964   -7.1533 C   0  0  0  0  0  0  0  0  0  0  0  0
   57.6365   -5.0880   -8.4230 C   0  0  0  0  0  0  0  0  0  0  0  0
   56.8510   -4.8652   -9.5510 C   0  0  0  0  0  0  0  0  0  0  0  0
   55.5256   -4.5491   -9.3351 C   0  0  0  0  0  0  0  0  0  0  0  0
   52.5333   -6.3440   -7.9393 C   0  0  0  0  0  0  0  0  0  0  0  0
   52.6587   -5.0092   -7.2102 C   0  0  0  0  0  0  0  0  0  0  0  0
   53.1105   -5.2562   -5.7864 C   0  0  0  0  0  0  0  0  0  0  0  0
   51.3292   -4.4487   -7.1474 N   0  0  0  0  0  0  0  0  0  0  0  0
   50.9559   -3.3277   -7.6132 C   0  0  0  0  0  0  0  0  0  0  0  0
   49.6190   -2.8679   -7.4980 N   0  0  0  0  0  0  0  0  0  0  0  0
   51.8972   -2.4804   -8.2819 N   0  0  0  0  0  0  0  0  0  0  0  0
   53.1233   -2.8610   -8.4083 C   0  0  0  0  0  0  0  0  0  0  0  0
   54.0688   -2.0064   -9.0816 N   0  0  0  0  0  0  0  0  0  0  0  0
   53.5747   -4.1154   -7.8958 N   0  0  0  0  0  0  0  0  0  0  0  0
   48.9164   -3.0022   -8.2498 H   0  0  0  0  0  0  0  0  0  0  0  0
   49.3234   -2.3784   -6.6343 H   0  0  0  0  0  0  0  0  0  0  0  0
   53.6974   -1.4914   -9.9079 H   0  0  0  0  0  0  0  0  0  0  0  0
   55.0459   -1.8826   -8.8039 H   0  0  0  0  0  0  0  0  0  0  0  0
   57.3944   -4.9582  -10.9349 C   0  0  0  0  0  0  0  0  0  0  0  0
   57.2964   -3.7886  -11.6646 O   0  0  0  0  0  0  0  0  0  0  0  0
   57.1993   -3.6729  -13.0280 C   0  0  0  0  0  0  0  0  0  0  0  0
   56.0066   -3.6765  -13.6819 C   0  0  0  0  0  0  0  0  0  0  0  0
   55.9319   -3.5573  -15.0574 C   0  0  0  0  0  0  0  0  0  0  0  0
   57.0716   -3.4301  -15.8100 C   0  0  0  0  0  0  0  0  0  0  0  0
   56.9854   -3.2770  -17.5709 Cl  0  0  0  0  0  0  0  0  0  0  0  0
   58.2921   -3.4234  -15.1688 C   0  0  0  0  0  0  0  0  0  0  0  0
   58.3523   -3.5417  -13.8158 C   0  0  0  0  0  0  0  0  0  0  0  0
   59.8927   -3.5325  -13.0152 Cl  0  0  0  0  0  0  0  0  0  0  0  0
  7  8  1  0  0  0
  8  9  1  0  0  0
  8 10  1  0  0  0
 10 11  2  0  0  0
 11 12  1  0  0  0
 11 13  1  0  0  0
 13 14  2  0  0  0
 14 15  1  0  0  0
 14 16  1  0  0  0
 16  1  1  0  0  0
  1  2  2  0  0  0
  2  3  1  0  0  0
  3  4  2  0  0  0
  4  5  1  0  0  0
  5 21  1  0  0  0
 21 22  1  0  0  0
 22 23  1  0  0  0
 23 24  2  0  0  0
 24 25  1  0  0  0
 25 26  2  0  0  0
 26 27  1  0  0  0
 26 28  1  0  0  0
 28 29  2  0  0  0
 29 30  1  0  0  0
  5  6  2  0  0  0
 16  8  1  0  0  0
  6  1  1  0  0  0
 29 23  1  0  0  0
 12 17  1  0  0  0
 12 18  1  0  0  0
 15 19  1  0  0  0
 15 20  1  0  0  0
M  END
> <minimizedAffinity>
-8.38488

> <CNNscore>
0.8331340551

> <CNNaffinity>
6.9187455177

> <CNN_VS>
5.7642426491

> <CNNaffinity_variance>
0.0643023774

$$$$
[H]c1c([H])c(N2C(N([H])[H])=NC(N([H])[H])=NC2(C([H])([H])[H])C([H])([H])[H])c([H])c(C([H])([H])Oc2c([H])c([H])c(Cl)c([H])c2Cl)c1[H]


 30 32  0  0  0  0  0  0  0  0999 V2000
   51.0321   -3.7837   -6.4394 C   0  0  0  0  0  0  0  0  0  0  0  0
   49.9787   -2.8960   -6.5451 C   0  0  0  0  0  0  0  0  0  0  0  0
   48.9853   -2.8092   -5.5941 C   0  0  0  0  0  0  0  0  0  0  0  0
   49.0441   -3.6383   -4.4965 C   0  0  0  0  0  0  0  0  0  0  0  0
   50.0803   -4.5540   -4.3328 C   0  0  0  0  0  0  0  0  0  0  0  0
   51.0423   -4.5901   -5.3210 C   0  0  0  0  0  0  0  0  0  0  0  0
   53.8429   -5.0216   -6.2514 C   0  0  0  0  0  0  0  0  0  0  0  0
   52.9914   -4.9406   -7.5153 C   0  0  0  0  0  0  0  0  0  0  0  0
   52.2779   -6.2595   -7.7244 C   0  0  0  0  0  0  0  0  0  0  0  0
   53.9080   -4.7690   -8.6181 N   0  0  0  0  0  0  0  0  0  0  0  0
   53.9260   -3.8066   -9.4467 C   0  0  0  0  0  0  0  0  0  0  0  0
   54.8735   -3.7326  -10.4997 N   0  0  0  0  0  0  0  0  0  0  0  0
   52.9680   -2.7478   -9.3359 N   0  0  0  0  0  0  0  0  0  0  0  0
   52.0889   -2.7767   -8.3922 C   0  0  0  0  0  0  0  0  0  0  0  0
   51.1257   -1.7100   -8.2829 N   0  0  0  0  0  0  0  0  0  0  0  0
   52.0420   -3.8444   -7.4447 N   0  0  0  0  0  0  0  0  0  0  0  0
   55.7587   -3.1975  -10.4166 H   0  0  0  0  0  0  0  0  0  0  0  0
   54.6833   -4.2281  -11.3891 H   0  0  0  0  0  0  0  0  0  0  0  0
   51.4878   -0.7563   -8.4961 H   0  0  0  0  0  0  0  0  0  0  0  0
   50.1450   -1.8327   -8.0179 H   0  0  0  0  0  0  0  0  0  0  0  0
   50.1667   -5.4617   -3.1548 C   0  0  0  0  0  0  0  0  0  0  0  0
   51.1734   -5.1429   -2.2633 O   0  0  0  0  0  0  0  0  0  0  0  0
   52.3536   -5.8169   -2.0764 C   0  0  0  0  0  0  0  0  0  0  0  0
   53.5412   -5.3659   -2.5625 C   0  0  0  0  0  0  0  0  0  0  0  0
   54.7194   -6.0610   -2.3613 C   0  0  0  0  0  0  0  0  0  0  0  0
   54.7240   -7.2382   -1.6573 C   0  0  0  0  0  0  0  0  0  0  0  0
   56.2272   -8.1344   -1.3949 Cl  0  0  0  0  0  0  0  0  0  0  0  0
   53.5317   -7.7146   -1.1547 C   0  0  0  0  0  0  0  0  0  0  0  0
   52.3800   -7.0220   -1.3596 C   0  0  0  0  0  0  0  0  0  0  0  0
   50.8825   -7.6280   -0.7237 Cl  0  0  0  0  0  0  0  0  0  0  0  0
  7  8  1  0  0  0
  8  9  1  0  0  0
  8 10  1  0  0  0
 10 11  2  0  0  0
 11 12  1  0  0  0
 11 13  1  0  0  0
 13 14  2  0  0  0
 14 15  1  0  0  0
 14 16  1  0  0  0
 16  1  1  0  0  0
  1  2  2  0  0  0
  2  3  1  0  0  0
  3  4  2  0  0  0
  4  5  1  0  0  0
  5 21  1  0  0  0
 21 22  1  0  0  0
 22 23  1  0  0  0
 23 24  2  0  0  0
 24 25  1  0  0  0
 25 26  2  0  0  0
 26 27  1  0  0  0
 26 28  1  0  0  0
 28 29  2  0  0  0
 29 30  1  0  0  0
  5  6  2  0  0  0
 16  8  1  0  0  0
  6  1  1  0  0  0
 29 23  1  0  0  0
 12 17  1  0  0  0
 12 18  1  0  0  0
 15 19  1  0  0  0
 15 20  1  0  0  0
M  END
> <minimizedAffinity>
-10.08658

> <CNNscore>
0.5999654531

> <CNNaffinity>
7.1773056984

> <CNN_VS>
4.3061356544

> <CNNaffinity_variance>
0.2975383103

$$$$
[H]c1c([H])c(N2C(N([H])[H])=NC(N([H])[H])=NC2(C([H])([H])[H])C([H])([H])[H])c([H])c(C([H])([H])Oc2c([H])c([H])c(Cl)c([H])c2Cl)c1[H]


 30 32  0  0  0  0  0  0  0  0999 V2000
   54.9207   -4.3800   -8.4705 C   0  0  0  0  0  0  0  0  0  0  0  0
   56.0517   -4.8806   -7.8549 C   0  0  0  0  0  0  0  0  0  0  0  0
   57.2701   -4.9574   -8.4940 C   0  0  0  0  0  0  0  0  0  0  0  0
   57.3647   -4.5186   -9.7956 C   0  0  0  0  0  0  0  0  0  0  0  0
   56.2608   -4.0036  -10.4705 C   0  0  0  0  0  0  0  0  0  0  0  0
   55.0712   -3.9547   -9.7735 C   0  0  0  0  0  0  0  0  0  0  0  0
   53.2917   -6.6898   -7.2544 C   0  0  0  0  0  0  0  0  0  0  0  0
   53.3333   -5.2586   -6.7260 C   0  0  0  0  0  0  0  0  0  0  0  0
   54.3218   -5.1751   -5.5823 C   0  0  0  0  0  0  0  0  0  0  0  0
   52.0240   -4.9828   -6.1827 N   0  0  0  0  0  0  0  0  0  0  0  0
   51.2355   -4.0530   -6.5387 C   0  0  0  0  0  0  0  0  0  0  0  0
   49.9642   -3.8675   -5.9376 N   0  0  0  0  0  0  0  0  0  0  0  0
   51.6193   -3.1477   -7.5800 N   0  0  0  0  0  0  0  0  0  0  0  0
   52.7673   -3.2815   -8.1531 C   0  0  0  0  0  0  0  0  0  0  0  0
   53.1513   -2.3691   -9.2008 N   0  0  0  0  0  0  0  0  0  0  0  0
   53.6765   -4.3165   -7.7761 N   0  0  0  0  0  0  0  0  0  0  0  0
   49.0938   -4.2630   -6.3407 H   0  0  0  0  0  0  0  0  0  0  0  0
   49.8921   -3.3176   -5.0627 H   0  0  0  0  0  0  0  0  0  0  0  0
   52.3858   -2.0815   -9.8468 H   0  0  0  0  0  0  0  0  0  0  0  0
   54.0966   -2.0029   -9.3397 H   0  0  0  0  0  0  0  0  0  0  0  0
   56.3370   -3.5225  -11.8782 C   0  0  0  0  0  0  0  0  0  0  0  0
   57.0973   -4.3205  -12.7120 O   0  0  0  0  0  0  0  0  0  0  0  0
   58.1184   -3.9167  -13.5343 C   0  0  0  0  0  0  0  0  0  0  0  0
   59.4042   -3.8020  -13.1058 C   0  0  0  0  0  0  0  0  0  0  0  0
   60.4184   -3.3942  -13.9524 C   0  0  0  0  0  0  0  0  0  0  0  0
   60.1536   -3.0909  -15.2637 C   0  0  0  0  0  0  0  0  0  0  0  0
   61.4454   -2.5682  -16.3543 Cl  0  0  0  0  0  0  0  0  0  0  0  0
   58.8573   -3.2003  -15.7206 C   0  0  0  0  0  0  0  0  0  0  0  0
   57.8689   -3.6021  -14.8781 C   0  0  0  0  0  0  0  0  0  0  0  0
   56.2390   -3.7377  -15.4605 Cl  0  0  0  0  0  0  0  0  0  0  0  0
  7  8  1  0  0  0
  8  9  1  0  0  0
  8 10  1  0  0  0
 10 11  2  0  0  0
 11 12  1  0  0  0
 11 13  1  0  0  0
 13 14  2  0  0  0
 14 15  1  0  0  0
 14 16  1  0  0  0
 16  1  1  0  0  0
  1  2  2  0  0  0
  2  3  1  0  0  0
  3  4  2  0  0  0
  4  5  1  0  0  0
  5 21  1  0  0  0
 21 22  1  0  0  0
 22 23  1  0  0  0
 23 24  2  0  0  0
 24 25  1  0  0  0
 25 26  2  0  0  0
 26 27  1  0  0  0
 26 28  1  0  0  0
 28 29  2  0  0  0
 29 30  1  0  0  0
  5  6  2  0  0  0
 16  8  1  0  0  0
  6  1  1  0  0  0
 29 23  1  0  0  0
 12 17  1  0  0  0
 12 18  1  0  0  0
 15 19  1  0  0  0
 15 20  1  0  0  0
M  END
> <minimizedAffinity>
-7.97573

> <CNNscore>
0.4441507757

> <CNNaffinity>
6.5701379776

> <CNN_VS>
2.9181318283

> <CNNaffinity_variance>
0.1560440660

$$$$
[H]c1c([H])c(N2C(N([H])[H])=NC(N([H])[H])=NC2(C([H])([H])[H])C([H])([H])[H])c([H])c(C([H])([H])Oc2c([H])c([H])c(Cl)c([H])c2Cl)c1[H]


 30 32  0  0  0  0  0  0  0  0999 V2000
   53.4067   -6.1219   -4.8172 C   0  0  0  0  0  0  0  0  0  0  0  0
   53.8458   -7.2991   -4.2427 C   0  0  0  0  0  0  0  0  0  0  0  0
   55.1183   -7.7897   -4.4399 C   0  0  0  0  0  0  0  0  0  0  0  0
   55.9857   -7.0803   -5.2399 C   0  0  0  0  0  0  0  0  0  0  0  0
   55.6025   -5.8870   -5.8470 C   0  0  0  0  0  0  0  0  0  0  0  0
   54.3153   -5.4517   -5.6087 C   0  0  0  0  0  0  0  0  0  0  0  0
   51.7113   -4.2677   -6.5937 C   0  0  0  0  0  0  0  0  0  0  0  0
   51.1677   -5.3643   -5.6821 C   0  0  0  0  0  0  0  0  0  0  0  0
   50.9042   -6.6110   -6.4997 C   0  0  0  0  0  0  0  0  0  0  0  0
   49.8930   -4.8959   -5.1906 N   0  0  0  0  0  0  0  0  0  0  0  0
   49.5619   -4.7335   -3.9754 C   0  0  0  0  0  0  0  0  0  0  0  0
   48.2772   -4.2658   -3.5973 N   0  0  0  0  0  0  0  0  0  0  0  0
   50.4989   -5.0253   -2.9323 N   0  0  0  0  0  0  0  0  0  0  0  0
   51.6783   -5.4529   -3.2331 C   0  0  0  0  0  0  0  0  0  0  0  0
   52.6195   -5.7459   -2.1815 N   0  0  0  0  0  0  0  0  0  0  0  0
   52.0816   -5.6459   -4.5896 N   0  0  0  0  0  0  0  0  0  0  0  0
   48.0829   -3.2650   -3.4038 H   0  0  0  0  0  0  0  0  0  0  0  0
   47.4972   -4.9415   -3.5084 H   0  0  0  0  0  0  0  0  0  0  0  0
   52.5993   -5.0947   -1.3682 H   0  0  0  0  0  0  0  0  0  0  0  0
   53.2805   -6.5271   -2.1895 H   0  0  0  0  0  0  0  0  0  0  0  0
   56.5219   -5.1010   -6.7164 C   0  0  0  0  0  0  0  0  0  0  0  0
   55.8896   -4.3977   -7.7242 O   0  0  0  0  0  0  0  0  0  0  0  0
   56.2200   -4.3878   -9.0556 C   0  0  0  0  0  0  0  0  0  0  0  0
   57.4498   -4.7508   -9.5094 C   0  0  0  0  0  0  0  0  0  0  0  0
   57.7609   -4.7345  -10.8565 C   0  0  0  0  0  0  0  0  0  0  0  0
   56.8273   -4.3479  -11.7840 C   0  0  0  0  0  0  0  0  0  0  0  0
   57.2168   -4.3242  -13.5101 Cl  0  0  0  0  0  0  0  0  0  0  0  0
   55.5735   -3.9761  -11.3472 C   0  0  0  0  0  0  0  0  0  0  0  0
   55.2800   -3.9961  -10.0200 C   0  0  0  0  0  0  0  0  0  0  0  0
   53.6991   -3.5265   -9.4773 Cl  0  0  0  0  0  0  0  0  0  0  0  0
  7  8  1  0  0  0
  8  9  1  0  0  0
  8 10  1  0  0  0
 10 11  2  0  0  0
 11 12  1  0  0  0
 11 13  1  0  0  0
 13 14  2  0  0  0
 14 15  1  0  0  0
 14 16  1  0  0  0
 16  1  1  0  0  0
  1  2  2  0  0  0
  2  3  1  0  0  0
  3  4  2  0  0  0
  4  5  1  0  0  0
  5 21  1  0  0  0
 21 22  1  0  0  0
 22 23  1  0  0  0
 23 24  2  0  0  0
 24 25  1  0  0  0
 25 26  2  0  0  0
 26 27  1  0  0  0
 26 28  1  0  0  0
 28 29  2  0  0  0
 29 30  1  0  0  0
  5  6  2  0  0  0
 16  8  1  0  0  0
  6  1  1  0  0  0
 29 23  1  0  0  0
 12 17  1  0  0  0
 12 18  1  0  0  0
 15 19  1  0  0  0
 15 20  1  0  0  0
M  END
> <minimizedAffinity>
-8.27870

> <CNNscore>
0.3486909866

> <CNNaffinity>
6.8785619736

> <CNN_VS>
2.3984925747

> <CNNaffinity_variance>
0.0366126522

$$$$
[H]c1c([H])c(N2C(N([H])[H])=NC(N([H])[H])=NC2(C([H])([H])[H])C([H])([H])[H])c([H])c(C([H])([H])Oc2c([H])c([H])c(Cl)c([H])c2Cl)c1[H]


 30 32  0  0  0  0  0  0  0  0999 V2000
   55.6691   -4.7214   -7.0097 C   0  0  0  0  0  0  0  0  0  0  0  0
   56.3377   -3.9583   -6.0718 C   0  0  0  0  0  0  0  0  0  0  0  0
   56.2441   -4.1993   -4.7184 C   0  0  0  0  0  0  0  0  0  0  0  0
   55.4544   -5.2399   -4.2833 C   0  0  0  0  0  0  0  0  0  0  0  0
   54.7557   -6.0451   -5.1792 C   0  0  0  0  0  0  0  0  0  0  0  0
   54.8926   -5.7501   -6.5200 C   0  0  0  0  0  0  0  0  0  0  0  0
   53.4399   -4.5333   -9.1224 C   0  0  0  0  0  0  0  0  0  0  0  0
   54.7495   -3.7499   -9.1418 C   0  0  0  0  0  0  0  0  0  0  0  0
   54.5140   -2.3658   -8.5751 C   0  0  0  0  0  0  0  0  0  0  0  0
   55.1118   -3.5892  -10.5305 N   0  0  0  0  0  0  0  0  0  0  0  0
   56.1853   -3.9809  -11.0845 C   0  0  0  0  0  0  0  0  0  0  0  0
   56.4449   -3.7722  -12.4633 N   0  0  0  0  0  0  0  0  0  0  0  0
   57.1837   -4.6587  -10.3132 N   0  0  0  0  0  0  0  0  0  0  0  0
   56.9870   -4.8688   -9.0556 C   0  0  0  0  0  0  0  0  0  0  0  0
   57.9933   -5.5511   -8.2814 N   0  0  0  0  0  0  0  0  0  0  0  0
   55.7908   -4.4411   -8.4029 N   0  0  0  0  0  0  0  0  0  0  0  0
   56.2413   -4.4905  -13.1840 H   0  0  0  0  0  0  0  0  0  0  0  0
   56.8532   -2.8717  -12.7721 H   0  0  0  0  0  0  0  0  0  0  0  0
   58.4819   -6.3310   -8.7703 H   0  0  0  0  0  0  0  0  0  0  0  0
   58.2442   -5.3211   -7.3164 H   0  0  0  0  0  0  0  0  0  0  0  0
   53.8951   -7.1766   -4.7341 C   0  0  0  0  0  0  0  0  0  0  0  0
   52.8542   -6.8073   -3.9034 O   0  0  0  0  0  0  0  0  0  0  0  0
   51.8550   -5.9097   -4.1824 C   0  0  0  0  0  0  0  0  0  0  0  0
   51.7470   -5.2816   -5.3840 C   0  0  0  0  0  0  0  0  0  0  0  0
   50.7307   -4.3810   -5.6442 C   0  0  0  0  0  0  0  0  0  0  0  0
   49.7915   -4.0925   -4.6870 C   0  0  0  0  0  0  0  0  0  0  0  0
   48.4874   -2.9411   -5.0113 Cl  0  0  0  0  0  0  0  0  0  0  0  0
   49.8807   -4.7176   -3.4613 C   0  0  0  0  0  0  0  0  0  0  0  0
   50.8848   -5.6010   -3.2177 C   0  0  0  0  0  0  0  0  0  0  0  0
   50.9908   -6.3843   -1.6720 Cl  0  0  0  0  0  0  0  0  0  0  0  0
  7  8  1  0  0  0
  8  9  1  0  0  0
  8 10  1  0  0  0
 10 11  2  0  0  0
 11 12  1  0  0  0
 11 13  1  0  0  0
 13 14  2  0  0  0
 14 15  1  0  0  0
 14 16  1  0  0  0
 16  1  1  0  0  0
  1  2  2  0  0  0
  2  3  1  0  0  0
  3  4  2  0  0  0
  4  5  1  0  0  0
  5 21  1  0  0  0
 21 22  1  0  0  0
 22 23  1  0  0  0
 23 24  2  0  0  0
 24 25  1  0  0  0
 25 26  2  0  0  0
 26 27  1  0  0  0
 26 28  1  0  0  0
 28 29  2  0  0  0
 29 30  1  0  0  0
  5  6  2  0  0  0
 16  8  1  0  0  0
  6  1  1  0  0  0
 29 23  1  0  0  0
 12 17  1  0  0  0
 12 18  1  0  0  0
 15 19  1  0  0  0
 15 20  1  0  0  0
M  END
> <minimizedAffinity>
-8.21318

> <CNNscore>
0.3435043097

> <CNNaffinity>
6.8008651733

> <CNN_VS>
2.3361265659

> <CNNaffinity_variance>
0.1933119595

$$$$
[H]c1c([H])c(N2C(N([H])[H])=NC(N([H])[H])=NC2(C([H])([H])[H])C([H])([H])[H])c([H])c(C([H])([H])Oc2c([H])c([H])c(Cl)c([H])c2Cl)c1[H]


 30 32  0  0  0  0  0  0  0  0999 V2000
   54.2869   -3.8942   -8.3243 C   0  0  0  0  0  0  0  0  0  0  0  0
   53.9671   -2.6350   -8.7942 C   0  0  0  0  0  0  0  0  0  0  0  0
   52.6928   -2.1166   -8.7147 C   0  0  0  0  0  0  0  0  0  0  0  0
   51.7000   -2.8822   -8.1456 C   0  0  0  0  0  0  0  0  0  0  0  0
   51.9594   -4.1590   -7.6537 C   0  0  0  0  0  0  0  0  0  0  0  0
   53.2557   -4.6180   -7.7642 C   0  0  0  0  0  0  0  0  0  0  0  0
   56.5906   -3.6162   -6.3035 C   0  0  0  0  0  0  0  0  0  0  0  0
   56.3804   -4.7918   -7.2536 C   0  0  0  0  0  0  0  0  0  0  0  0
   55.6882   -5.9168   -6.5136 C   0  0  0  0  0  0  0  0  0  0  0  0
   57.6951   -5.2642   -7.6201 N   0  0  0  0  0  0  0  0  0  0  0  0
   58.1721   -5.3445   -8.7943 C   0  0  0  0  0  0  0  0  0  0  0  0
   59.4825   -5.8251   -9.0474 N   0  0  0  0  0  0  0  0  0  0  0  0
   57.3807   -4.9424   -9.9182 N   0  0  0  0  0  0  0  0  0  0  0  0
   56.1836   -4.4993   -9.7318 C   0  0  0  0  0  0  0  0  0  0  0  0
   55.3890   -4.0954  -10.8646 N   0  0  0  0  0  0  0  0  0  0  0  0
   55.6181   -4.3966   -8.4243 N   0  0  0  0  0  0  0  0  0  0  0  0
   60.2979   -5.1921   -9.1528 H   0  0  0  0  0  0  0  0  0  0  0  0
   59.6412   -6.8452   -9.1317 H   0  0  0  0  0  0  0  0  0  0  0  0
   55.9084   -3.6068  -11.6244 H   0  0  0  0  0  0  0  0  0  0  0  0
   54.3828   -4.2555  -10.9597 H   0  0  0  0  0  0  0  0  0  0  0  0
   50.9032   -5.0069   -7.0336 C   0  0  0  0  0  0  0  0  0  0  0  0
   50.6000   -4.6736   -5.7271 O   0  0  0  0  0  0  0  0  0  0  0  0
   51.0725   -5.2794   -4.5906 C   0  0  0  0  0  0  0  0  0  0  0  0
   52.2870   -5.8892   -4.5345 C   0  0  0  0  0  0  0  0  0  0  0  0
   52.7441   -6.4928   -3.3776 C   0  0  0  0  0  0  0  0  0  0  0  0
   51.9770   -6.4932   -2.2405 C   0  0  0  0  0  0  0  0  0  0  0  0
   52.5541   -7.2633   -0.7553 Cl  0  0  0  0  0  0  0  0  0  0  0  0
   50.7423   -5.8806   -2.2736 C   0  0  0  0  0  0  0  0  0  0  0  0
   50.3041   -5.2909   -3.4173 C   0  0  0  0  0  0  0  0  0  0  0  0
   48.7482   -4.5213   -3.4516 Cl  0  0  0  0  0  0  0  0  0  0  0  0
  7  8  1  0  0  0
  8  9  1  0  0  0
  8 10  1  0  0  0
 10 11  2  0  0  0
 11 12  1  0  0  0
 11 13  1  0  0  0
 13 14  2  0  0  0
 14 15  1  0  0  0
 14 16  1  0  0  0
 16  1  1  0  0  0
  1  2  2  0  0  0
  2  3  1  0  0  0
  3  4  2  0  0  0
  4  5  1  0  0  0
  5 21  1  0  0  0
 21 22  1  0  0  0
 22 23  1  0  0  0
 23 24  2  0  0  0
 24 25  1  0  0  0
 25 26  2  0  0  0
 26 27  1  0  0  0
 26 28  1  0  0  0
 28 29  2  0  0  0
 29 30  1  0  0  0
  5  6  2  0  0  0
 16  8  1  0  0  0
  6  1  1  0  0  0
 29 23  1  0  0  0
 12 17  1  0  0  0
 12 18  1  0  0  0
 15 19  1  0  0  0
 15 20  1  0  0  0
M  END
> <minimizedAffinity>
-9.64778

> <CNNscore>
0.3085394502

> <CNNaffinity>
6.7967109680

> <CNN_VS>
2.0970535278

> <CNNaffinity_variance>
0.1431482732

$$$$
[H]c1c([H])c(N2C(N([H])[H])=NC(N([H])[H])=NC2(C([H])([H])[H])C([H])([H])[H])c([H])c(C([H])([H])Oc2c([H])c([H])c(Cl)c([H])c2Cl)c1[H]


 30 32  0  0  0  0  0  0  0  0999 V2000
   53.4438   -5.8600   -5.2416 C   0  0  0  0  0  0  0  0  0  0  0  0
   53.9580   -7.1014   -4.9199 C   0  0  0  0  0  0  0  0  0  0  0  0
   55.2373   -7.4838   -5.2604 C   0  0  0  0  0  0  0  0  0  0  0  0
   56.0340   -6.5956   -5.9474 C   0  0  0  0  0  0  0  0  0  0  0  0
   55.5734   -5.3297   -6.3003 C   0  0  0  0  0  0  0  0  0  0  0  0
   54.2837   -5.0099   -5.9294 C   0  0  0  0  0  0  0  0  0  0  0  0
   51.4626   -4.0553   -6.7536 C   0  0  0  0  0  0  0  0  0  0  0  0
   51.0859   -5.2354   -5.8621 C   0  0  0  0  0  0  0  0  0  0  0  0
   50.8397   -6.4558   -6.7235 C   0  0  0  0  0  0  0  0  0  0  0  0
   49.8311   -4.8925   -5.2348 N   0  0  0  0  0  0  0  0  0  0  0  0
   49.6019   -4.8178   -3.9879 C   0  0  0  0  0  0  0  0  0  0  0  0
   48.3267   -4.4706   -3.4725 N   0  0  0  0  0  0  0  0  0  0  0  0
   50.6493   -5.0884   -3.0494 N   0  0  0  0  0  0  0  0  0  0  0  0
   51.8240   -5.4077   -3.4764 C   0  0  0  0  0  0  0  0  0  0  0  0
   52.8765   -5.6797   -2.5299 N   0  0  0  0  0  0  0  0  0  0  0  0
   52.1142   -5.5001   -4.8718 N   0  0  0  0  0  0  0  0  0  0  0  0
   48.0788   -3.4989   -3.2058 H   0  0  0  0  0  0  0  0  0  0  0  0
   47.6093   -5.2083   -3.3544 H   0  0  0  0  0  0  0  0  0  0  0  0
   52.8837   -5.0739   -1.6820 H   0  0  0  0  0  0  0  0  0  0  0  0
   53.5889   -6.4059   -2.6404 H   0  0  0  0  0  0  0  0  0  0  0  0
   56.4154   -4.3508   -7.0432 C   0  0  0  0  0  0  0  0  0  0  0  0
   57.1770   -4.9066   -8.0536 O   0  0  0  0  0  0  0  0  0  0  0  0
   57.0503   -4.6816   -9.4009 C   0  0  0  0  0  0  0  0  0  0  0  0
   55.9411   -4.1171   -9.9496 C   0  0  0  0  0  0  0  0  0  0  0  0
   55.8350   -3.8983  -11.3107 C   0  0  0  0  0  0  0  0  0  0  0  0
   56.8573   -4.2479  -12.1558 C   0  0  0  0  0  0  0  0  0  0  0  0
   56.7302   -3.9715  -13.8990 Cl  0  0  0  0  0  0  0  0  0  0  0  0
   57.9919   -4.8214  -11.6219 C   0  0  0  0  0  0  0  0  0  0  0  0
   58.0839   -5.0316  -10.2820 C   0  0  0  0  0  0  0  0  0  0  0  0
   59.5155   -5.7541   -9.6168 Cl  0  0  0  0  0  0  0  0  0  0  0  0
  7  8  1  0  0  0
  8  9  1  0  0  0
  8 10  1  0  0  0
 10 11  2  0  0  0
 11 12  1  0  0  0
 11 13  1  0  0  0
 13 14  2  0  0  0
 14 15  1  0  0  0
 14 16  1  0  0  0
 16  1  1  0  0  0
  1  2  2  0  0  0
  2  3  1  0  0  0
  3  4  2  0  0  0
  4  5  1  0  0  0
  5 21  1  0  0  0
 21 22  1  0  0  0
 22 23  1  0  0  0
 23 24  2  0  0  0
 24 25  1  0  0  0
 25 26  2  0  0  0
 26 27  1  0  0  0
 26 28  1  0  0  0
 28 29  2  0  0  0
 29 30  1  0  0  0
  5  6  2  0  0  0
 16  8  1  0  0  0
  6  1  1  0  0  0
 29 23  1  0  0  0
 12 17  1  0  0  0
 12 18  1  0  0  0
 15 19  1  0  0  0
 15 20  1  0  0  0
M  END
> <minimizedAffinity>
-8.54781

> <CNNscore>
0.2691228688

> <CNNaffinity>
6.5604119301

> <CNN_VS>
1.7655569315

> <CNNaffinity_variance>
0.0649447069

$$$$
[H]c1c([H])c(N2C(N([H])[H])=NC(N([H])[H])=NC2(C([H])([H])[H])C([H])([H])[H])c([H])c(C([H])([H])Oc2c([H])c([H])c(Cl)c([H])c2Cl)c1[H]


 30 32  0  0  0  0  0  0  0  0999 V2000
   54.0596   -7.5414   -3.0336 C   0  0  0  0  0  0  0  0  0  0  0  0
   55.3173   -7.6409   -2.4704 C   0  0  0  0  0  0  0  0  0  0  0  0
   56.4717   -7.4516   -3.1985 C   0  0  0  0  0  0  0  0  0  0  0  0
   56.3688   -7.1518   -4.5383 C   0  0  0  0  0  0  0  0  0  0  0  0
   55.1298   -7.0378   -5.1639 C   0  0  0  0  0  0  0  0  0  0  0  0
   54.0139   -7.2394   -4.3781 C   0  0  0  0  0  0  0  0  0  0  0  0
   53.1672   -6.0265   -0.5084 C   0  0  0  0  0  0  0  0  0  0  0  0
   52.2365   -6.6547   -1.5419 C   0  0  0  0  0  0  0  0  0  0  0  0
   51.7697   -5.5883   -2.5099 C   0  0  0  0  0  0  0  0  0  0  0  0
   51.0743   -7.1181   -0.8206 N   0  0  0  0  0  0  0  0  0  0  0  0
   50.6349   -8.3088   -0.7749 C   0  0  0  0  0  0  0  0  0  0  0  0
   49.4784   -8.6605   -0.0327 N   0  0  0  0  0  0  0  0  0  0  0  0
   51.3117   -9.3502   -1.4882 N   0  0  0  0  0  0  0  0  0  0  0  0
   52.3676   -9.0728   -2.1755 C   0  0  0  0  0  0  0  0  0  0  0  0
   53.0469  -10.1226   -2.8926 N   0  0  0  0  0  0  0  0  0  0  0  0
   52.8872   -7.7444   -2.2471 N   0  0  0  0  0  0  0  0  0  0  0  0
   49.5284   -9.0298    0.9357 H   0  0  0  0  0  0  0  0  0  0  0  0
   48.5441   -8.5479   -0.4655 H   0  0  0  0  0  0  0  0  0  0  0  0
   53.0873  -11.0434   -2.4063 H   0  0  0  0  0  0  0  0  0  0  0  0
   53.4750  -10.0175   -3.8161 H   0  0  0  0  0  0  0  0  0  0  0  0
   54.9916   -6.7145   -6.6114 C   0  0  0  0  0  0  0  0  0  0  0  0
   54.7316   -5.3830   -6.8748 O   0  0  0  0  0  0  0  0  0  0  0  0
   53.5000   -4.7868   -6.9724 C   0  0  0  0  0  0  0  0  0  0  0  0
   52.4734   -5.0807   -6.1299 C   0  0  0  0  0  0  0  0  0  0  0  0
   51.2401   -4.4665   -6.2457 C   0  0  0  0  0  0  0  0  0  0  0  0
   51.0145   -3.5324   -7.2245 C   0  0  0  0  0  0  0  0  0  0  0  0
   49.4392   -2.7413   -7.3800 Cl  0  0  0  0  0  0  0  0  0  0  0  0
   52.0408   -3.2180   -8.0899 C   0  0  0  0  0  0  0  0  0  0  0  0
   53.2487   -3.8291   -7.9658 C   0  0  0  0  0  0  0  0  0  0  0  0
   54.5364   -3.4283   -9.0592 Cl  0  0  0  0  0  0  0  0  0  0  0  0
  7  8  1  0  0  0
  8  9  1  0  0  0
  8 10  1  0  0  0
 10 11  2  0  0  0
 11 12  1  0  0  0
 11 13  1  0  0  0
 13 14  2  0  0  0
 14 15  1  0  0  0
 14 16  1  0  0  0
 16  1  1  0  0  0
  1  2  2  0  0  0
  2  3  1  0  0  0
  3  4  2  0  0  0
  4  5  1  0  0  0
  5 21  1  0  0  0
 21 22  1  0  0  0
 22 23  1  0  0  0
 23 24  2  0  0  0
 24 25  1  0  0  0
 25 26  2  0  0  0
 26 27  1  0  0  0
 26 28  1  0  0  0
 28 29  2  0  0  0
 29 30  1  0  0  0
  5  6  2  0  0  0
 16  8  1  0  0  0
  6  1  1  0  0  0
 29 23  1  0  0  0
 12 17  1  0  0  0
 12 18  1  0  0  0
 15 19  1  0  0  0
 15 20  1  0  0  0
M  END
> <minimizedAffinity>
-6.83243

> <CNNscore>
0.2373758703

> <CNNaffinity>
6.4907288551

> <CNN_VS>
1.5407423973

> <CNNaffinity_variance>
0.0698095188

$$$$
[H]c1c([H])c(N2C(N([H])[H])=NC(N([H])[H])=NC2(C([H])([H])[H])C([H])([H])[H])c([H])c(C([H])([H])Oc2c([H])c([H])c(Cl)c([H])c2Cl)c1[H]


 30 32  0  0  0  0  0  0  0  0999 V2000
   54.4304   -3.8293   -8.4240 C   0  0  0  0  0  0  0  0  0  0  0  0
   54.1027   -2.6656   -9.0927 C   0  0  0  0  0  0  0  0  0  0  0  0
   52.8461   -2.1037   -9.0289 C   0  0  0  0  0  0  0  0  0  0  0  0
   51.8798   -2.7251   -8.2700 C   0  0  0  0  0  0  0  0  0  0  0  0
   52.1484   -3.9002   -7.5727 C   0  0  0  0  0  0  0  0  0  0  0  0
   53.4259   -4.4100   -7.6790 C   0  0  0  0  0  0  0  0  0  0  0  0
   56.7409   -3.6033   -6.4044 C   0  0  0  0  0  0  0  0  0  0  0  0
   56.4892   -4.7852   -7.3366 C   0  0  0  0  0  0  0  0  0  0  0  0
   55.7562   -5.8729   -6.5804 C   0  0  0  0  0  0  0  0  0  0  0  0
   57.7863   -5.3103   -7.6940 N   0  0  0  0  0  0  0  0  0  0  0  0
   58.2611   -5.4259   -8.8662 C   0  0  0  0  0  0  0  0  0  0  0  0
   59.5534   -5.9574   -9.1100 N   0  0  0  0  0  0  0  0  0  0  0  0
   57.4856   -5.0130   -9.9973 N   0  0  0  0  0  0  0  0  0  0  0  0
   56.3051   -4.5241   -9.8193 C   0  0  0  0  0  0  0  0  0  0  0  0
   55.5265   -4.1093  -10.9593 N   0  0  0  0  0  0  0  0  0  0  0  0
   55.7426   -4.3809   -8.5143 N   0  0  0  0  0  0  0  0  0  0  0  0
   60.3913   -5.3559   -9.2241 H   0  0  0  0  0  0  0  0  0  0  0  0
   59.6753   -6.9837   -9.1784 H   0  0  0  0  0  0  0  0  0  0  0  0
   56.0639   -3.6516  -11.7258 H   0  0  0  0  0  0  0  0  0  0  0  0
   54.5153   -4.2344  -11.0534 H   0  0  0  0  0  0  0  0  0  0  0  0
   51.1208   -4.5915   -6.7450 C   0  0  0  0  0  0  0  0  0  0  0  0
   50.8505   -3.9725   -5.5393 O   0  0  0  0  0  0  0  0  0  0  0  0
   49.6302   -3.8671   -4.9216 C   0  0  0  0  0  0  0  0  0  0  0  0
   48.7022   -2.9406   -5.2828 C   0  0  0  0  0  0  0  0  0  0  0  0
   47.4775   -2.8529   -4.6471 C   0  0  0  0  0  0  0  0  0  0  0  0
   47.1599   -3.7080   -3.6227 C   0  0  0  0  0  0  0  0  0  0  0  0
   45.5948   -3.6030   -2.8035 Cl  0  0  0  0  0  0  0  0  0  0  0  0
   48.0850   -4.6559   -3.2396 C   0  0  0  0  0  0  0  0  0  0  0  0
   49.2857   -4.7318   -3.8723 C   0  0  0  0  0  0  0  0  0  0  0  0
   50.4456   -5.9279   -3.3845 Cl  0  0  0  0  0  0  0  0  0  0  0  0
  7  8  1  0  0  0
  8  9  1  0  0  0
  8 10  1  0  0  0
 10 11  2  0  0  0
 11 12  1  0  0  0
 11 13  1  0  0  0
 13 14  2  0  0  0
 14 15  1  0  0  0
 14 16  1  0  0  0
 16  1  1  0  0  0
  1  2  2  0  0  0
  2  3  1  0  0  0
  3  4  2  0  0  0
  4  5  1  0  0  0
  5 21  1  0  0  0
 21 22  1  0  0  0
 22 23  1  0  0  0
 23 24  2  0  0  0
 24 25  1  0  0  0
 25 26  2  0  0  0
 26 27  1  0  0  0
 26 28  1  0  0  0
 28 29  2  0  0  0
 29 30  1  0  0  0
  5  6  2  0  0  0
 16  8  1  0  0  0
  6  1  1  0  0  0
 29 23  1  0  0  0
 12 17  1  0  0  0
 12 18  1  0  0  0
 15 19  1  0  0  0
 15 20  1  0  0  0
M  END
> <minimizedAffinity>
-8.44404

> <CNNscore>
0.2135735452

> <CNNaffinity>
6.4361467361

> <CNN_VS>
1.3745906353

> <CNNaffinity_variance>
0.0751716271

$$$$
[H]c1nc2n(-c3c([H])c([H])c(OC([H])([H])[H])c([H])c3[H])c([H])c(C([H])([H])c3c([H])c([H])c(Cl)c([H])c3[H])n2c1[H]


 24 27  0  0  0  0  0  0  0  0999 V2000
   54.5079   -4.4966   -8.5475 N   0  0  0  0  0  0  0  0  0  0  0  0
   54.1184   -5.3526   -7.5858 C   0  0  0  0  0  0  0  0  0  0  0  0
   52.9184   -4.9519   -7.0357 C   0  0  0  0  0  0  0  0  0  0  0  0
   52.5875   -3.8147   -7.6995 N   0  0  0  0  0  0  0  0  0  0  0  0
   51.6542   -2.8446   -7.7947 C   0  0  0  0  0  0  0  0  0  0  0  0
   52.0527   -1.9667   -8.7803 C   0  0  0  0  0  0  0  0  0  0  0  0
   53.2143   -2.4221   -9.2593 N   0  0  0  0  0  0  0  0  0  0  0  0
   53.5482   -3.5512   -8.6040 C   0  0  0  0  0  0  0  0  0  0  0  0
   58.0126   -4.7329  -10.9134 C   0  0  0  0  0  0  0  0  0  0  0  0
   56.8311   -4.2287  -11.4125 C   0  0  0  0  0  0  0  0  0  0  0  0
   55.6783   -4.1415  -10.6633 C   0  0  0  0  0  0  0  0  0  0  0  0
   55.6998   -4.5796   -9.3440 C   0  0  0  0  0  0  0  0  0  0  0  0
   56.8640   -5.0898   -8.8112 C   0  0  0  0  0  0  0  0  0  0  0  0
   58.0145   -5.1621   -9.6039 C   0  0  0  0  0  0  0  0  0  0  0  0
   59.3282   -3.8815  -12.7584 C   0  0  0  0  0  0  0  0  0  0  0  0
   59.1513   -4.8023  -11.7045 O   0  0  0  0  0  0  0  0  0  0  0  0
   52.1289   -5.5848   -5.9617 C   0  0  0  0  0  0  0  0  0  0  0  0
   50.9207   -4.8134   -5.5972 C   0  0  0  0  0  0  0  0  0  0  0  0
   50.5802   -4.7772   -4.2551 C   0  0  0  0  0  0  0  0  0  0  0  0
   49.4842   -4.0890   -3.8460 C   0  0  0  0  0  0  0  0  0  0  0  0
   48.7125   -3.4265   -4.7755 C   0  0  0  0  0  0  0  0  0  0  0  0
   47.3107   -2.5545   -4.1950 Cl  0  0  0  0  0  0  0  0  0  0  0  0
   49.0196   -3.4390   -6.1236 C   0  0  0  0  0  0  0  0  0  0  0  0
   50.1387   -4.1455   -6.5163 C   0  0  0  0  0  0  0  0  0  0  0  0
 15 16  1  0  0  0
 16  9  1  0  0  0
  9 10  2  0  0  0
 10 11  1  0  0  0
 11 12  2  0  0  0
 12 13  1  0  0  0
 13 14  2  0  0  0
 12  1  1  0  0  0
  1  2  1  0  0  0
  2  3  2  0  0  0
  3 17  1  0  0  0
 17 18  1  0  0  0
 18 19  2  0  0  0
 19 20  1  0  0  0
 20 21  2  0  0  0
 21 22  1  0  0  0
 21 23  1  0  0  0
 23 24  2  0  0  0
  3  4  1  0  0  0
  4  5  1  0  0  0
  5  6  2  0  0  0
  6  7  1  0  0  0
  7  8  2  0  0  0
 14  9  1  0  0  0
  8  1  1  0  0  0
 24 18  1  0  0  0
  8  4  1  0  0  0
M  END
> <minimizedAffinity>
-9.77822

> <CNNscore>
0.7216368914

> <CNNaffinity>
7.0142889023

> <CNN_VS>
5.0617694855

> <CNNaffinity_variance>
0.1021623835

$$$$
[H]c1nc2n(-c3c([H])c([H])c(OC([H])([H])[H])c([H])c3[H])c([H])c(C([H])([H])c3c([H])c([H])c(Cl)c([H])c3[H])n2c1[H]


 24 27  0  0  0  0  0  0  0  0999 V2000
   56.8060   -4.3340  -11.3400 N   0  0  0  0  0  0  0  0  0  0  0  0
   55.9006   -3.7871  -10.5090 C   0  0  0  0  0  0  0  0  0  0  0  0
   56.2501   -4.0123   -9.1935 C   0  0  0  0  0  0  0  0  0  0  0  0
   57.4073   -4.7199   -9.2515 N   0  0  0  0  0  0  0  0  0  0  0  0
   58.3596   -5.3090   -8.4983 C   0  0  0  0  0  0  0  0  0  0  0  0
   59.2881   -5.8699   -9.3493 C   0  0  0  0  0  0  0  0  0  0  0  0
   58.8801   -5.6094  -10.5950 N   0  0  0  0  0  0  0  0  0  0  0  0
   57.7313   -4.9070  -10.5440 C   0  0  0  0  0  0  0  0  0  0  0  0
   56.7260   -4.2734  -15.5738 C   0  0  0  0  0  0  0  0  0  0  0  0
   55.8841   -5.0829  -14.8423 C   0  0  0  0  0  0  0  0  0  0  0  0
   55.8910   -5.1204  -13.4652 C   0  0  0  0  0  0  0  0  0  0  0  0
   56.7842   -4.3084  -12.7755 C   0  0  0  0  0  0  0  0  0  0  0  0
   57.6412   -3.4858  -13.4743 C   0  0  0  0  0  0  0  0  0  0  0  0
   57.6043   -3.4757  -14.8728 C   0  0  0  0  0  0  0  0  0  0  0  0
   56.1248   -3.1648  -17.6401 C   0  0  0  0  0  0  0  0  0  0  0  0
   56.6850   -4.2673  -16.9615 O   0  0  0  0  0  0  0  0  0  0  0  0
   55.5537   -3.5967   -7.9608 C   0  0  0  0  0  0  0  0  0  0  0  0
   54.3323   -4.3855   -7.6895 C   0  0  0  0  0  0  0  0  0  0  0  0
   53.1178   -3.7459   -7.8752 C   0  0  0  0  0  0  0  0  0  0  0  0
   51.9548   -4.4068   -7.6456 C   0  0  0  0  0  0  0  0  0  0  0  0
   51.9908   -5.7189   -7.2266 C   0  0  0  0  0  0  0  0  0  0  0  0
   50.4631   -6.5245   -6.9451 Cl  0  0  0  0  0  0  0  0  0  0  0  0
   53.1828   -6.3915   -7.0301 C   0  0  0  0  0  0  0  0  0  0  0  0
   54.3529   -5.6991   -7.2697 C   0  0  0  0  0  0  0  0  0  0  0  0
 15 16  1  0  0  0
 16  9  1  0  0  0
  9 10  2  0  0  0
 10 11  1  0  0  0
 11 12  2  0  0  0
 12 13  1  0  0  0
 13 14  2  0  0  0
 12  1  1  0  0  0
  1  2  1  0  0  0
  2  3  2  0  0  0
  3 17  1  0  0  0
 17 18  1  0  0  0
 18 19  2  0  0  0
 19 20  1  0  0  0
 20 21  2  0  0  0
 21 22  1  0  0  0
 21 23  1  0  0  0
 23 24  2  0  0  0
  3  4  1  0  0  0
  4  5  1  0  0  0
  5  6  2  0  0  0
  6  7  1  0  0  0
  7  8  2  0  0  0
 14  9  1  0  0  0
  8  1  1  0  0  0
 24 18  1  0  0  0
  8  4  1  0  0  0
M  END
> <minimizedAffinity>
-8.16996

> <CNNscore>
0.6168214083

> <CNNaffinity>
6.4044065475

> <CNN_VS>
3.9503750801

> <CNNaffinity_variance>
0.1088947877

$$$$
[H]c1nc2n(-c3c([H])c([H])c(OC([H])([H])[H])c([H])c3[H])c([H])c(C([H])([H])c3c([H])c([H])c(Cl)c([H])c3[H])n2c1[H]


 24 27  0  0  0  0  0  0  0  0999 V2000
   55.1661   -4.5569   -9.2334 N   0  0  0  0  0  0  0  0  0  0  0  0
   55.2571   -5.4712   -8.2510 C   0  0  0  0  0  0  0  0  0  0  0  0
   54.2017   -5.3460   -7.3713 C   0  0  0  0  0  0  0  0  0  0  0  0
   53.4592   -4.3171   -7.8546 N   0  0  0  0  0  0  0  0  0  0  0  0
   52.3488   -3.5820   -7.6359 C   0  0  0  0  0  0  0  0  0  0  0  0
   52.2547   -2.6445   -8.6425 C   0  0  0  0  0  0  0  0  0  0  0  0
   53.3060   -2.8312   -9.4462 N   0  0  0  0  0  0  0  0  0  0  0  0
   54.0472   -3.8515   -8.9717 C   0  0  0  0  0  0  0  0  0  0  0  0
   57.8658   -4.0298  -12.4535 C   0  0  0  0  0  0  0  0  0  0  0  0
   58.2917   -4.4321  -11.2061 C   0  0  0  0  0  0  0  0  0  0  0  0
   57.4335   -4.6105  -10.1433 C   0  0  0  0  0  0  0  0  0  0  0  0
   56.0759   -4.3763  -10.3295 C   0  0  0  0  0  0  0  0  0  0  0  0
   55.6140   -3.9728  -11.5637 C   0  0  0  0  0  0  0  0  0  0  0  0
   56.5167   -3.8025  -12.6188 C   0  0  0  0  0  0  0  0  0  0  0  0
   60.1436   -3.7389  -13.2195 C   0  0  0  0  0  0  0  0  0  0  0  0
   58.7661   -3.8625  -13.4969 O   0  0  0  0  0  0  0  0  0  0  0  0
   53.9016   -6.1318   -6.1591 C   0  0  0  0  0  0  0  0  0  0  0  0
   52.5802   -5.8161   -5.5745 C   0  0  0  0  0  0  0  0  0  0  0  0
   52.5682   -5.3180   -4.2821 C   0  0  0  0  0  0  0  0  0  0  0  0
   51.3924   -5.0058   -3.6805 C   0  0  0  0  0  0  0  0  0  0  0  0
   50.2103   -5.1878   -4.3646 C   0  0  0  0  0  0  0  0  0  0  0  0
   48.7229   -4.7695   -3.5429 Cl  0  0  0  0  0  0  0  0  0  0  0  0
   50.1810   -5.6825   -5.6554 C   0  0  0  0  0  0  0  0  0  0  0  0
   51.3891   -5.9931   -6.2470 C   0  0  0  0  0  0  0  0  0  0  0  0
 15 16  1  0  0  0
 16  9  1  0  0  0
  9 10  2  0  0  0
 10 11  1  0  0  0
 11 12  2  0  0  0
 12 13  1  0  0  0
 13 14  2  0  0  0
 12  1  1  0  0  0
  1  2  1  0  0  0
  2  3  2  0  0  0
  3 17  1  0  0  0
 17 18  1  0  0  0
 18 19  2  0  0  0
 19 20  1  0  0  0
 20 21  2  0  0  0
 21 22  1  0  0  0
 21 23  1  0  0  0
 23 24  2  0  0  0
  3  4  1  0  0  0
  4  5  1  0  0  0
  5  6  2  0  0  0
  6  7  1  0  0  0
  7  8  2  0  0  0
 14  9  1  0  0  0
  8  1  1  0  0  0
 24 18  1  0  0  0
  8  4  1  0  0  0
M  END
> <minimizedAffinity>
-7.95384

> <CNNscore>
0.5296851397

> <CNNaffinity>
6.5405631065

> <CNN_VS>
3.4644391537

> <CNNaffinity_variance>
0.1155071706

$$$$
[H]c1nc2n(-c3c([H])c([H])c(OC([H])([H])[H])c([H])c3[H])c([H])c(C([H])([H])c3c([H])c([H])c(Cl)c([H])c3[H])n2c1[H]


 24 27  0  0  0  0  0  0  0  0999 V2000
   54.6472   -4.5899   -8.4247 N   0  0  0  0  0  0  0  0  0  0  0  0
   54.4164   -5.3977   -7.3742 C   0  0  0  0  0  0  0  0  0  0  0  0
   53.2173   -5.0792   -6.7707 C   0  0  0  0  0  0  0  0  0  0  0  0
   52.7219   -4.0427   -7.4942 N   0  0  0  0  0  0  0  0  0  0  0  0
   51.6837   -3.1865   -7.5956 C   0  0  0  0  0  0  0  0  0  0  0  0
   51.9196   -2.3581   -8.6722 C   0  0  0  0  0  0  0  0  0  0  0  0
   53.0910   -2.7288   -9.1979 N   0  0  0  0  0  0  0  0  0  0  0  0
   53.5880   -3.7577   -8.4838 C   0  0  0  0  0  0  0  0  0  0  0  0
   57.9983   -4.6563  -11.0133 C   0  0  0  0  0  0  0  0  0  0  0  0
   56.7658   -4.2028  -11.4311 C   0  0  0  0  0  0  0  0  0  0  0  0
   55.6613   -4.1713  -10.6084 C   0  0  0  0  0  0  0  0  0  0  0  0
   55.7876   -4.6152   -9.2970 C   0  0  0  0  0  0  0  0  0  0  0  0
   57.0052   -5.0757   -8.8446 C   0  0  0  0  0  0  0  0  0  0  0  0
   58.1041   -5.0922   -9.7103 C   0  0  0  0  0  0  0  0  0  0  0  0
   59.2043   -3.6741  -12.8684 C   0  0  0  0  0  0  0  0  0  0  0  0
   59.0854   -4.6704  -11.8768 O   0  0  0  0  0  0  0  0  0  0  0  0
   52.5724   -5.6981   -5.5967 C   0  0  0  0  0  0  0  0  0  0  0  0
   53.5402   -6.1548   -4.5757 C   0  0  0  0  0  0  0  0  0  0  0  0
   53.5698   -5.4544   -3.3811 C   0  0  0  0  0  0  0  0  0  0  0  0
   54.4324   -5.8161   -2.3976 C   0  0  0  0  0  0  0  0  0  0  0  0
   55.2784   -6.8853   -2.5959 C   0  0  0  0  0  0  0  0  0  0  0  0
   56.3705   -7.3097   -1.2960 Cl  0  0  0  0  0  0  0  0  0  0  0  0
   55.2788   -7.6091   -3.7740 C   0  0  0  0  0  0  0  0  0  0  0  0
   54.3931   -7.2229   -4.7600 C   0  0  0  0  0  0  0  0  0  0  0  0
 15 16  1  0  0  0
 16  9  1  0  0  0
  9 10  2  0  0  0
 10 11  1  0  0  0
 11 12  2  0  0  0
 12 13  1  0  0  0
 13 14  2  0  0  0
 12  1  1  0  0  0
  1  2  1  0  0  0
  2  3  2  0  0  0
  3 17  1  0  0  0
 17 18  1  0  0  0
 18 19  2  0  0  0
 19 20  1  0  0  0
 20 21  2  0  0  0
 21 22  1  0  0  0
 21 23  1  0  0  0
 23 24  2  0  0  0
  3  4  1  0  0  0
  4  5  1  0  0  0
  5  6  2  0  0  0
  6  7  1  0  0  0
  7  8  2  0  0  0
 14  9  1  0  0  0
  8  1  1  0  0  0
 24 18  1  0  0  0
  8  4  1  0  0  0
M  END
> <minimizedAffinity>
-8.55504

> <CNNscore>
0.5263503790

> <CNNaffinity>
6.5880174637

> <CNN_VS>
3.4676055908

> <CNNaffinity_variance>
0.1058299094

$$$$
[H]c1nc2n(-c3c([H])c([H])c(OC([H])([H])[H])c([H])c3[H])c([H])c(C([H])([H])c3c([H])c([H])c(Cl)c([H])c3[H])n2c1[H]


 24 27  0  0  0  0  0  0  0  0999 V2000
   56.7258   -4.3530  -11.3569 N   0  0  0  0  0  0  0  0  0  0  0  0
   55.7831   -3.8356  -10.5490 C   0  0  0  0  0  0  0  0  0  0  0  0
   56.1159   -4.0336   -9.2248 C   0  0  0  0  0  0  0  0  0  0  0  0
   57.3019   -4.6938   -9.2536 N   0  0  0  0  0  0  0  0  0  0  0  0
   58.2626   -5.2362   -8.4763 C   0  0  0  0  0  0  0  0  0  0  0  0
   59.2294   -5.7669   -9.3037 C   0  0  0  0  0  0  0  0  0  0  0  0
   58.8353   -5.5354  -10.5595 N   0  0  0  0  0  0  0  0  0  0  0  0
   57.6581   -4.8800  -10.5377 C   0  0  0  0  0  0  0  0  0  0  0  0
   56.7565   -4.3065  -15.5916 C   0  0  0  0  0  0  0  0  0  0  0  0
   57.6128   -3.5220  -14.8497 C   0  0  0  0  0  0  0  0  0  0  0  0
   57.6221   -3.5194  -13.4721 C   0  0  0  0  0  0  0  0  0  0  0  0
   56.7308   -4.3422  -12.7928 C   0  0  0  0  0  0  0  0  0  0  0  0
   55.8597   -5.1406  -13.5021 C   0  0  0  0  0  0  0  0  0  0  0  0
   55.8804   -5.1154  -14.9007 C   0  0  0  0  0  0  0  0  0  0  0  0
   57.9809   -3.9616  -17.6511 C   0  0  0  0  0  0  0  0  0  0  0  0
   56.7815   -4.2776  -16.9793 O   0  0  0  0  0  0  0  0  0  0  0  0
   55.3795   -3.6349   -8.0099 C   0  0  0  0  0  0  0  0  0  0  0  0
   55.1889   -4.7479   -7.0547 C   0  0  0  0  0  0  0  0  0  0  0  0
   55.9426   -4.7142   -5.8930 C   0  0  0  0  0  0  0  0  0  0  0  0
   55.8208   -5.7019   -4.9701 C   0  0  0  0  0  0  0  0  0  0  0  0
   54.9419   -6.7384   -5.1969 C   0  0  0  0  0  0  0  0  0  0  0  0
   54.8235   -7.9857   -3.9751 Cl  0  0  0  0  0  0  0  0  0  0  0  0
   54.1726   -6.8074   -6.3437 C   0  0  0  0  0  0  0  0  0  0  0  0
   54.3133   -5.7919   -7.2681 C   0  0  0  0  0  0  0  0  0  0  0  0
 15 16  1  0  0  0
 16  9  1  0  0  0
  9 10  2  0  0  0
 10 11  1  0  0  0
 11 12  2  0  0  0
 12 13  1  0  0  0
 13 14  2  0  0  0
 12  1  1  0  0  0
  1  2  1  0  0  0
  2  3  2  0  0  0
  3 17  1  0  0  0
 17 18  1  0  0  0
 18 19  2  0  0  0
 19 20  1  0  0  0
 20 21  2  0  0  0
 21 22  1  0  0  0
 21 23  1  0  0  0
 23 24  2  0  0  0
  3  4  1  0  0  0
  4  5  1  0  0  0
  5  6  2  0  0  0
  6  7  1  0  0  0
  7  8  2  0  0  0
 14  9  1  0  0  0
  8  1  1  0  0  0
 24 18  1  0  0  0
  8  4  1  0  0  0
M  END
> <minimizedAffinity>
-7.30714

> <CNNscore>
0.4457854331

> <CNNaffinity>
5.8826808929

> <CNN_VS>
2.6224133968

> <CNNaffinity_variance>
0.2580936551

$$$$
[H]c1nc2n(-c3c([H])c([H])c(OC([H])([H])[H])c([H])c3[H])c([H])c(C([H])([H])c3c([H])c([H])c(Cl)c([H])c3[H])n2c1[H]


 24 27  0  0  0  0  0  0  0  0999 V2000
   59.0043   -5.7108   -9.2061 N   0  0  0  0  0  0  0  0  0  0  0  0
   58.3738   -5.3233   -8.0829 C   0  0  0  0  0  0  0  0  0  0  0  0
   57.2740   -4.5475   -8.3861 C   0  0  0  0  0  0  0  0  0  0  0  0
   57.2556   -4.4750   -9.7417 N   0  0  0  0  0  0  0  0  0  0  0  0
   56.5829   -3.9624  -10.7933 C   0  0  0  0  0  0  0  0  0  0  0  0
   57.2286   -4.3591  -11.9451 C   0  0  0  0  0  0  0  0  0  0  0  0
   58.2744   -5.1008  -11.5680 N   0  0  0  0  0  0  0  0  0  0  0  0
   58.2981   -5.1765  -10.2229 C   0  0  0  0  0  0  0  0  0  0  0  0
   62.4725   -8.1258   -9.4794 C   0  0  0  0  0  0  0  0  0  0  0  0
   61.2647   -8.5255  -10.0091 C   0  0  0  0  0  0  0  0  0  0  0  0
   60.1230   -7.7583   -9.9331 C   0  0  0  0  0  0  0  0  0  0  0  0
   60.1841   -6.5245   -9.2952 C   0  0  0  0  0  0  0  0  0  0  0  0
   61.3754   -6.0923   -8.7536 C   0  0  0  0  0  0  0  0  0  0  0  0
   62.5135   -6.9001   -8.8510 C   0  0  0  0  0  0  0  0  0  0  0  0
   63.4732  -10.2539  -10.0536 C   0  0  0  0  0  0  0  0  0  0  0  0
   63.5987   -8.9315   -9.5790 O   0  0  0  0  0  0  0  0  0  0  0  0
   56.3017   -3.9139   -7.4748 C   0  0  0  0  0  0  0  0  0  0  0  0
   55.0256   -4.6555   -7.3800 C   0  0  0  0  0  0  0  0  0  0  0  0
   53.9239   -4.0914   -8.0017 C   0  0  0  0  0  0  0  0  0  0  0  0
   52.7193   -4.7152   -7.9567 C   0  0  0  0  0  0  0  0  0  0  0  0
   52.6002   -5.9140   -7.2882 C   0  0  0  0  0  0  0  0  0  0  0  0
   51.0251   -6.6763   -7.2606 Cl  0  0  0  0  0  0  0  0  0  0  0  0
   53.6762   -6.5088   -6.6555 C   0  0  0  0  0  0  0  0  0  0  0  0
   54.8912   -5.8560   -6.7145 C   0  0  0  0  0  0  0  0  0  0  0  0
 15 16  1  0  0  0
 16  9  1  0  0  0
  9 10  2  0  0  0
 10 11  1  0  0  0
 11 12  2  0  0  0
 12 13  1  0  0  0
 13 14  2  0  0  0
 12  1  1  0  0  0
  1  2  1  0  0  0
  2  3  2  0  0  0
  3 17  1  0  0  0
 17 18  1  0  0  0
 18 19  2  0  0  0
 19 20  1  0  0  0
 20 21  2  0  0  0
 21 22  1  0  0  0
 21 23  1  0  0  0
 23 24  2  0  0  0
  3  4  1  0  0  0
  4  5  1  0  0  0
  5  6  2  0  0  0
  6  7  1  0  0  0
  7  8  2  0  0  0
 14  9  1  0  0  0
  8  1  1  0  0  0
 24 18  1  0  0  0
  8  4  1  0  0  0
M  END
> <minimizedAffinity>
-7.00019

> <CNNscore>
0.4457139373

> <CNNaffinity>
5.7766809464

> <CNN_VS>
2.5747473240

> <CNNaffinity_variance>
0.2220616341

$$$$
[H]c1nc2n(-c3c([H])c([H])c(OC([H])([H])[H])c([H])c3[H])c([H])c(C([H])([H])c3c([H])c([H])c(Cl)c([H])c3[H])n2c1[H]


 24 27  0  0  0  0  0  0  0  0999 V2000
   56.7742   -4.9049   -8.8664 N   0  0  0  0  0  0  0  0  0  0  0  0
   57.7779   -5.3078   -8.0667 C   0  0  0  0  0  0  0  0  0  0  0  0
   58.9532   -5.4192   -8.7807 C   0  0  0  0  0  0  0  0  0  0  0  0
   58.6292   -5.0680  -10.0515 N   0  0  0  0  0  0  0  0  0  0  0  0
   59.1277   -4.9097  -11.2956 C   0  0  0  0  0  0  0  0  0  0  0  0
   58.0995   -4.4967  -12.1160 C   0  0  0  0  0  0  0  0  0  0  0  0
   57.0045   -4.4139  -11.3543 N   0  0  0  0  0  0  0  0  0  0  0  0
   57.3197   -4.7615  -10.0912 C   0  0  0  0  0  0  0  0  0  0  0  0
   52.7471   -4.2489   -7.7320 C   0  0  0  0  0  0  0  0  0  0  0  0
   53.5270   -5.2079   -7.1227 C   0  0  0  0  0  0  0  0  0  0  0  0
   54.8388   -5.4402   -7.4737 C   0  0  0  0  0  0  0  0  0  0  0  0
   55.4083   -4.6772   -8.4868 C   0  0  0  0  0  0  0  0  0  0  0  0
   54.6580   -3.7089   -9.1184 C   0  0  0  0  0  0  0  0  0  0  0  0
   53.3288   -3.5027   -8.7338 C   0  0  0  0  0  0  0  0  0  0  0  0
   50.8706   -2.7544   -7.4073 C   0  0  0  0  0  0  0  0  0  0  0  0
   51.4286   -4.0485   -7.3461 O   0  0  0  0  0  0  0  0  0  0  0  0
   60.2921   -5.8259   -8.3126 C   0  0  0  0  0  0  0  0  0  0  0  0
   60.9749   -6.7535   -9.2404 C   0  0  0  0  0  0  0  0  0  0  0  0
   62.0971   -6.2733   -9.8953 C   0  0  0  0  0  0  0  0  0  0  0  0
   62.7752   -7.0678  -10.7619 C   0  0  0  0  0  0  0  0  0  0  0  0
   62.3396   -8.3556  -10.9856 C   0  0  0  0  0  0  0  0  0  0  0  0
   63.2501   -9.3376  -12.1122 Cl  0  0  0  0  0  0  0  0  0  0  0  0
   61.2243   -8.8710  -10.3513 C   0  0  0  0  0  0  0  0  0  0  0  0
   60.5505   -8.0447   -9.4744 C   0  0  0  0  0  0  0  0  0  0  0  0
 15 16  1  0  0  0
 16  9  1  0  0  0
  9 10  2  0  0  0
 10 11  1  0  0  0
 11 12  2  0  0  0
 12 13  1  0  0  0
 13 14  2  0  0  0
 12  1  1  0  0  0
  1  2  1  0  0  0
  2  3  2  0  0  0
  3 17  1  0  0  0
 17 18  1  0  0  0
 18 19  2  0  0  0
 19 20  1  0  0  0
 20 21  2  0  0  0
 21 22  1  0  0  0
 21 23  1  0  0  0
 23 24  2  0  0  0
  3  4  1  0  0  0
  4  5  1  0  0  0
  5  6  2  0  0  0
  6  7  1  0  0  0
  7  8  2  0  0  0
 14  9  1  0  0  0
  8  1  1  0  0  0
 24 18  1  0  0  0
  8  4  1  0  0  0
M  END
> <minimizedAffinity>
-5.97052

> <CNNscore>
0.4346260428

> <CNNaffinity>
5.6941423416

> <CNN_VS>
2.4748225212

> <CNNaffinity_variance>
0.1635195613

$$$$
[H]c1nc2n(-c3c([H])c([H])c(OC([H])([H])[H])c([H])c3[H])c([H])c(C([H])([H])c3c([H])c([H])c(Cl)c([H])c3[H])n2c1[H]


 24 27  0  0  0  0  0  0  0  0999 V2000
   53.9548   -4.5313   -8.3737 N   0  0  0  0  0  0  0  0  0  0  0  0
   53.4945   -5.4773   -7.5355 C   0  0  0  0  0  0  0  0  0  0  0  0
   52.2806   -5.1015   -6.9983 C   0  0  0  0  0  0  0  0  0  0  0  0
   52.0150   -3.8859   -7.5414 N   0  0  0  0  0  0  0  0  0  0  0  0
   51.1152   -2.8805   -7.5669 C   0  0  0  0  0  0  0  0  0  0  0  0
   51.5862   -1.9102   -8.4258 C   0  0  0  0  0  0  0  0  0  0  0  0
   52.7567   -2.3471   -8.9004 N   0  0  0  0  0  0  0  0  0  0  0  0
   53.0260   -3.5539   -8.3648 C   0  0  0  0  0  0  0  0  0  0  0  0
   57.5625   -4.6192  -10.5901 C   0  0  0  0  0  0  0  0  0  0  0  0
   56.3659   -4.2466  -11.1634 C   0  0  0  0  0  0  0  0  0  0  0  0
   55.1796   -4.2100  -10.4638 C   0  0  0  0  0  0  0  0  0  0  0  0
   55.1816   -4.5633   -9.1192 C   0  0  0  0  0  0  0  0  0  0  0  0
   56.3600   -4.9412   -8.5126 C   0  0  0  0  0  0  0  0  0  0  0  0
   57.5446   -4.9659   -9.2565 C   0  0  0  0  0  0  0  0  0  0  0  0
   58.8296   -3.8766  -12.5144 C   0  0  0  0  0  0  0  0  0  0  0  0
   58.7349   -4.6418  -11.3331 O   0  0  0  0  0  0  0  0  0  0  0  0
   51.4218   -5.8254   -6.0414 C   0  0  0  0  0  0  0  0  0  0  0  0
   51.8726   -5.6907   -4.6392 C   0  0  0  0  0  0  0  0  0  0  0  0
   53.2230   -5.8761   -4.3933 C   0  0  0  0  0  0  0  0  0  0  0  0
   53.7093   -5.7682   -3.1308 C   0  0  0  0  0  0  0  0  0  0  0  0
   52.8500   -5.4726   -2.0952 C   0  0  0  0  0  0  0  0  0  0  0  0
   53.5285   -5.3448   -0.4871 Cl  0  0  0  0  0  0  0  0  0  0  0  0
   51.4961   -5.2805   -2.3003 C   0  0  0  0  0  0  0  0  0  0  0  0
   51.0243   -5.3954   -3.5926 C   0  0  0  0  0  0  0  0  0  0  0  0
 15 16  1  0  0  0
 16  9  1  0  0  0
  9 10  2  0  0  0
 10 11  1  0  0  0
 11 12  2  0  0  0
 12 13  1  0  0  0
 13 14  2  0  0  0
 12  1  1  0  0  0
  1  2  1  0  0  0
  2  3  2  0  0  0
  3 17  1  0  0  0
 17 18  1  0  0  0
 18 19  2  0  0  0
 19 20  1  0  0  0
 20 21  2  0  0  0
 21 22  1  0  0  0
 21 23  1  0  0  0
 23 24  2  0  0  0
  3  4  1  0  0  0
  4  5  1  0  0  0
  5  6  2  0  0  0
  6  7  1  0  0  0
  7  8  2  0  0  0
 14  9  1  0  0  0
  8  1  1  0  0  0
 24 18  1  0  0  0
  8  4  1  0  0  0
M  END
> <minimizedAffinity>
-9.23735

> <CNNscore>
0.4086875916

> <CNNaffinity>
6.5362281799

> <CNN_VS>
2.6712753773

> <CNNaffinity_variance>
0.1084858179

$$$$
[H]c1nc2n(-c3c([H])c([H])c(OC([H])([H])[H])c([H])c3[H])c([H])c(C([H])([H])c3c([H])c([H])c(Cl)c([H])c3[H])n2c1[H]


 24 27  0  0  0  0  0  0  0  0999 V2000
   54.0265   -4.5151   -8.3858 N   0  0  0  0  0  0  0  0  0  0  0  0
   53.6076   -5.4451   -7.5090 C   0  0  0  0  0  0  0  0  0  0  0  0
   52.3992   -5.0792   -6.9528 C   0  0  0  0  0  0  0  0  0  0  0  0
   52.0939   -3.8863   -7.5246 N   0  0  0  0  0  0  0  0  0  0  0  0
   51.1720   -2.9013   -7.5572 C   0  0  0  0  0  0  0  0  0  0  0  0
   51.6006   -1.9475   -8.4558 C   0  0  0  0  0  0  0  0  0  0  0  0
   52.7684   -2.3735   -8.9465 N   0  0  0  0  0  0  0  0  0  0  0  0
   53.0771   -3.5577   -8.3825 C   0  0  0  0  0  0  0  0  0  0  0  0
   57.6022   -4.6059  -10.6533 C   0  0  0  0  0  0  0  0  0  0  0  0
   57.5747   -4.9696   -9.3243 C   0  0  0  0  0  0  0  0  0  0  0  0
   56.4248   -4.9485   -8.5659 C   0  0  0  0  0  0  0  0  0  0  0  0
   55.2352   -4.5435   -9.1605 C   0  0  0  0  0  0  0  0  0  0  0  0
   55.2251   -4.1727  -10.4878 C   0  0  0  0  0  0  0  0  0  0  0  0
   56.4135   -4.2074  -11.2253 C   0  0  0  0  0  0  0  0  0  0  0  0
   58.8970   -3.8940  -12.5708 C   0  0  0  0  0  0  0  0  0  0  0  0
   58.7844   -4.6422  -11.3803 O   0  0  0  0  0  0  0  0  0  0  0  0
   51.5800   -5.7921   -5.9539 C   0  0  0  0  0  0  0  0  0  0  0  0
   52.1254   -5.6991   -4.5822 C   0  0  0  0  0  0  0  0  0  0  0  0
   51.2176   -5.4802   -3.5592 C   0  0  0  0  0  0  0  0  0  0  0  0
   51.6452   -5.3836   -2.2747 C   0  0  0  0  0  0  0  0  0  0  0  0
   52.9889   -5.5050   -1.9954 C   0  0  0  0  0  0  0  0  0  0  0  0
   53.4868   -5.3726   -0.3230 Cl  0  0  0  0  0  0  0  0  0  0  0  0
   53.9255   -5.7238   -2.9887 C   0  0  0  0  0  0  0  0  0  0  0  0
   53.4675   -5.8185   -4.2876 C   0  0  0  0  0  0  0  0  0  0  0  0
 15 16  1  0  0  0
 16  9  1  0  0  0
  9 10  2  0  0  0
 10 11  1  0  0  0
 11 12  2  0  0  0
 12 13  1  0  0  0
 13 14  2  0  0  0
 12  1  1  0  0  0
  1  2  1  0  0  0
  2  3  2  0  0  0
  3 17  1  0  0  0
 17 18  1  0  0  0
 18 19  2  0  0  0
 19 20  1  0  0  0
 20 21  2  0  0  0
 21 22  1  0  0  0
 21 23  1  0  0  0
 23 24  2  0  0  0
  3  4  1  0  0  0
  4  5  1  0  0  0
  5  6  2  0  0  0
  6  7  1  0  0  0
  7  8  2  0  0  0
 14  9  1  0  0  0
  8  1  1  0  0  0
 24 18  1  0  0  0
  8  4  1  0  0  0
M  END
> <minimizedAffinity>
-9.25467

> <CNNscore>
0.4071697891

> <CNNaffinity>
6.5261220932

> <CNN_VS>
2.6572396755

> <CNNaffinity_variance>
0.1234270781

$$$$
[H]Oc1c([H])c([H])c2c(c1[H])-c1nc(N([H])C3([H])C([H])([H])C([H])([H])N([H])C([H])([H])C3([H])[H])nc([H])c1N([H])N=C2[H]


 27 30  0  0  0  0  0  0  0  0999 V2000
   56.9402   -6.2233   -6.5623 O   0  0  0  0  0  0  0  0  0  0  0  0
   56.0522   -5.3951   -7.2095 C   0  0  0  0  0  0  0  0  0  0  0  0
   56.4873   -4.6909   -8.3115 C   0  0  0  0  0  0  0  0  0  0  0  0
   55.5832   -3.8682   -8.9440 C   0  0  0  0  0  0  0  0  0  0  0  0
   54.2706   -3.7395   -8.5001 C   0  0  0  0  0  0  0  0  0  0  0  0
   53.8554   -4.4532   -7.3951 C   0  0  0  0  0  0  0  0  0  0  0  0
   54.7402   -5.2818   -6.7461 C   0  0  0  0  0  0  0  0  0  0  0  0
   52.5317   -4.4513   -6.7839 C   0  0  0  0  0  0  0  0  0  0  0  0
   51.4071   -3.7346   -7.1688 C   0  0  0  0  0  0  0  0  0  0  0  0
   50.2419   -3.8718   -6.4553 C   0  0  0  0  0  0  0  0  0  0  0  0
   50.2142   -4.6933   -5.4038 N   0  0  0  0  0  0  0  0  0  0  0  0
   51.2887   -5.3864   -5.0258 C   0  0  0  0  0  0  0  0  0  0  0  0
   52.4301   -5.2559   -5.7197 N   0  0  0  0  0  0  0  0  0  0  0  0
   51.2655   -2.8283   -8.2491 N   0  0  0  0  0  0  0  0  0  0  0  0
   52.2480   -2.4513   -9.1999 N   0  0  0  0  0  0  0  0  0  0  0  0
   53.4768   -2.8261   -9.2998 C   0  0  0  0  0  0  0  0  0  0  0  0
   57.0855   -7.1912   -6.7786 H   0  0  0  0  0  0  0  0  0  0  0  0
   50.3228   -2.3908   -8.3494 H   0  0  0  0  0  0  0  0  0  0  0  0
   51.2219   -6.2575   -3.8938 N   0  0  0  0  0  0  0  0  0  0  0  0
   50.9041   -7.2458   -4.0677 H   0  0  0  0  0  0  0  0  0  0  0  0
   51.5532   -5.8894   -2.5445 C   0  0  0  0  0  0  0  0  0  0  0  0
   52.9903   -5.5521   -2.3887 C   0  0  0  0  0  0  0  0  0  0  0  0
   53.4692   -5.5069   -0.9698 C   0  0  0  0  0  0  0  0  0  0  0  0
   52.6025   -6.1616   -0.0288 N   0  0  0  0  0  0  0  0  0  0  0  0
   52.0860   -7.4038   -0.6023 C   0  0  0  0  0  0  0  0  0  0  0  0
   51.0807   -7.0108   -1.6443 C   0  0  0  0  0  0  0  0  0  0  0  0
   53.1222   -6.3136    0.8480 H   0  0  0  0  0  0  0  0  0  0  0  0
  1  2  1  0  0  0
  2  3  2  0  0  0
  3  4  1  0  0  0
  4  5  2  0  0  0
  5  6  1  0  0  0
  6  7  2  0  0  0
  6  8  1  0  0  0
  8  9  2  0  0  0
  9 10  1  0  0  0
 10 11  2  0  0  0
 11 12  1  0  0  0
 12 19  1  0  0  0
 19 21  1  0  0  0
 21 22  1  0  0  0
 22 23  1  0  0  0
 23 24  1  0  0  0
 24 25  1  0  0  0
 25 26  1  0  0  0
 12 13  2  0  0  0
  9 14  1  0  0  0
 14 15  1  0  0  0
 15 16  2  0  0  0
  7  2  1  0  0  0
 13  8  1  0  0  0
 16  5  1  0  0  0
 26 21  1  0  0  0
  1 17  1  0  0  0
 19 20  1  0  0  0
 24 27  1  0  0  0
 14 18  1  0  0  0
M  END
> <minimizedAffinity>
-9.68411

> <CNNscore>
0.8970474601

> <CNNaffinity>
7.0769133568

> <CNN_VS>
6.3483271599

> <CNNaffinity_variance>
0.1429281682

$$$$
[H]Oc1c([H])c([H])c2c(c1[H])-c1nc(N([H])C3([H])C([H])([H])C([H])([H])N([H])C([H])([H])C3([H])[H])nc([H])c1N([H])N=C2[H]


 27 30  0  0  0  0  0  0  0  0999 V2000
   49.3392   -4.8671   -3.9857 O   0  0  0  0  0  0  0  0  0  0  0  0
   49.8841   -4.2255   -5.0740 C   0  0  0  0  0  0  0  0  0  0  0  0
   49.1849   -3.1850   -5.6469 C   0  0  0  0  0  0  0  0  0  0  0  0
   49.7478   -2.5569   -6.7346 C   0  0  0  0  0  0  0  0  0  0  0  0
   50.9799   -2.9455   -7.2516 C   0  0  0  0  0  0  0  0  0  0  0  0
   51.6634   -3.9894   -6.6634 C   0  0  0  0  0  0  0  0  0  0  0  0
   51.1217   -4.6327   -5.5756 C   0  0  0  0  0  0  0  0  0  0  0  0
   52.9557   -4.5374   -7.0575 C   0  0  0  0  0  0  0  0  0  0  0  0
   53.7759   -4.1403   -8.1044 C   0  0  0  0  0  0  0  0  0  0  0  0
   54.9674   -4.7902   -8.3130 C   0  0  0  0  0  0  0  0  0  0  0  0
   55.3136   -5.7929   -7.5029 N   0  0  0  0  0  0  0  0  0  0  0  0
   54.5332   -6.1821   -6.4943 C   0  0  0  0  0  0  0  0  0  0  0  0
   53.3675   -5.5503   -6.2862 N   0  0  0  0  0  0  0  0  0  0  0  0
   53.5621   -3.1057   -9.0490 N   0  0  0  0  0  0  0  0  0  0  0  0
   52.4547   -2.2237   -9.1341 N   0  0  0  0  0  0  0  0  0  0  0  0
   51.3997   -2.1608   -8.3971 C   0  0  0  0  0  0  0  0  0  0  0  0
   49.4890   -4.6053   -3.0298 H   0  0  0  0  0  0  0  0  0  0  0  0
   54.3140   -2.9856   -9.7634 H   0  0  0  0  0  0  0  0  0  0  0  0
   54.9369   -7.2605   -5.6466 N   0  0  0  0  0  0  0  0  0  0  0  0
   54.9485   -8.2243   -6.0698 H   0  0  0  0  0  0  0  0  0  0  0  0
   55.3255   -7.1305   -4.2690 C   0  0  0  0  0  0  0  0  0  0  0  0
   54.1632   -7.1857   -3.3474 C   0  0  0  0  0  0  0  0  0  0  0  0
   54.4484   -6.7093   -1.9559 C   0  0  0  0  0  0  0  0  0  0  0  0
   55.6467   -5.9261   -1.8297 N   0  0  0  0  0  0  0  0  0  0  0  0
   55.7758   -5.0190   -2.9695 C   0  0  0  0  0  0  0  0  0  0  0  0
   56.1472   -5.8647   -4.1518 C   0  0  0  0  0  0  0  0  0  0  0  0
   55.6231   -5.4301   -0.9266 H   0  0  0  0  0  0  0  0  0  0  0  0
  1  2  1  0  0  0
  2  3  2  0  0  0
  3  4  1  0  0  0
  4  5  2  0  0  0
  5  6  1  0  0  0
  6  7  2  0  0  0
  6  8  1  0  0  0
  8  9  2  0  0  0
  9 10  1  0  0  0
 10 11  2  0  0  0
 11 12  1  0  0  0
 12 19  1  0  0  0
 19 21  1  0  0  0
 21 22  1  0  0  0
 22 23  1  0  0  0
 23 24  1  0  0  0
 24 25  1  0  0  0
 25 26  1  0  0  0
 12 13  2  0  0  0
  9 14  1  0  0  0
 14 15  1  0  0  0
 15 16  2  0  0  0
  7  2  1  0  0  0
 13  8  1  0  0  0
 16  5  1  0  0  0
 26 21  1  0  0  0
  1 17  1  0  0  0
 19 20  1  0  0  0
 24 27  1  0  0  0
 14 18  1  0  0  0
M  END
> <minimizedAffinity>
-9.64260

> <CNNscore>
0.7022448182

> <CNNaffinity>
6.8523230553

> <CNN_VS>
4.8120083809

> <CNNaffinity_variance>
0.3791252673

$$$$
[H]Oc1c([H])c([H])c2c(c1[H])-c1nc(N([H])C3([H])C([H])([H])C([H])([H])N([H])C([H])([H])C3([H])[H])nc([H])c1N([H])N=C2[H]


 27 30  0  0  0  0  0  0  0  0999 V2000
   58.2875   -5.8177   -7.7756 O   0  0  0  0  0  0  0  0  0  0  0  0
   57.1535   -5.1916   -8.2393 C   0  0  0  0  0  0  0  0  0  0  0  0
   57.2168   -4.5091   -9.4352 C   0  0  0  0  0  0  0  0  0  0  0  0
   56.0712   -3.8899   -9.8808 C   0  0  0  0  0  0  0  0  0  0  0  0
   54.8808   -3.9405   -9.1619 C   0  0  0  0  0  0  0  0  0  0  0  0
   54.8390   -4.6289   -7.9672 C   0  0  0  0  0  0  0  0  0  0  0  0
   55.9704   -5.2559   -7.5010 C   0  0  0  0  0  0  0  0  0  0  0  0
   53.6952   -4.7939   -7.0783 C   0  0  0  0  0  0  0  0  0  0  0  0
   52.4084   -4.2962   -7.2299 C   0  0  0  0  0  0  0  0  0  0  0  0
   51.4628   -4.5653   -6.2713 C   0  0  0  0  0  0  0  0  0  0  0  0
   51.8008   -5.3018   -5.2107 N   0  0  0  0  0  0  0  0  0  0  0  0
   53.0338   -5.7848   -5.0555 C   0  0  0  0  0  0  0  0  0  0  0  0
   53.9619   -5.5245   -5.9895 N   0  0  0  0  0  0  0  0  0  0  0  0
   51.8869   -3.5054   -8.2840 N   0  0  0  0  0  0  0  0  0  0  0  0
   52.5651   -3.0467   -9.4420 N   0  0  0  0  0  0  0  0  0  0  0  0
   53.7903   -3.2265   -9.7982 C   0  0  0  0  0  0  0  0  0  0  0  0
   58.5477   -6.7631   -7.9834 H   0  0  0  0  0  0  0  0  0  0  0  0
   50.8835   -3.2327   -8.1886 H   0  0  0  0  0  0  0  0  0  0  0  0
   53.3598   -6.5704   -3.9061 N   0  0  0  0  0  0  0  0  0  0  0  0
   52.6215   -7.2323   -3.5529 H   0  0  0  0  0  0  0  0  0  0  0  0
   54.6108   -6.5258   -3.1999 C   0  0  0  0  0  0  0  0  0  0  0  0
   55.0734   -5.1360   -2.9592 C   0  0  0  0  0  0  0  0  0  0  0  0
   56.5111   -5.0195   -2.5544 C   0  0  0  0  0  0  0  0  0  0  0  0
   57.3044   -6.1843   -2.8360 N   0  0  0  0  0  0  0  0  0  0  0  0
   56.9392   -6.7367   -4.1400 C   0  0  0  0  0  0  0  0  0  0  0  0
   55.5936   -7.3788   -3.9732 C   0  0  0  0  0  0  0  0  0  0  0  0
   58.3006   -5.9271   -2.7772 H   0  0  0  0  0  0  0  0  0  0  0  0
  1  2  1  0  0  0
  2  3  2  0  0  0
  3  4  1  0  0  0
  4  5  2  0  0  0
  5  6  1  0  0  0
  6  7  2  0  0  0
  6  8  1  0  0  0
  8  9  2  0  0  0
  9 10  1  0  0  0
 10 11  2  0  0  0
 11 12  1  0  0  0
 12 19  1  0  0  0
 19 21  1  0  0  0
 21 22  1  0  0  0
 22 23  1  0  0  0
 23 24  1  0  0  0
 24 25  1  0  0  0
 25 26  1  0  0  0
 12 13  2  0  0  0
  9 14  1  0  0  0
 14 15  1  0  0  0
 15 16  2  0  0  0
  7  2  1  0  0  0
 13  8  1  0  0  0
 16  5  1  0  0  0
 26 21  1  0  0  0
  1 17  1  0  0  0
 19 20  1  0  0  0
 24 27  1  0  0  0
 14 18  1  0  0  0
M  END
> <minimizedAffinity>
-9.02837

> <CNNscore>
0.6982521415

> <CNNaffinity>
6.6206636429

> <CNN_VS>
4.6228923798

> <CNNaffinity_variance>
0.2853184938

$$$$
[H]Oc1c([H])c([H])c2c(c1[H])-c1nc(N([H])C3([H])C([H])([H])C([H])([H])N([H])C([H])([H])C3([H])[H])nc([H])c1N([H])N=C2[H]


 27 30  0  0  0  0  0  0  0  0999 V2000
   55.3335   -7.3421   -5.1415 O   0  0  0  0  0  0  0  0  0  0  0  0
   54.1442   -6.6506   -5.1586 C   0  0  0  0  0  0  0  0  0  0  0  0
   53.2194   -6.9007   -4.1677 C   0  0  0  0  0  0  0  0  0  0  0  0
   52.0363   -6.1982   -4.2034 C   0  0  0  0  0  0  0  0  0  0  0  0
   51.7660   -5.2636   -5.1983 C   0  0  0  0  0  0  0  0  0  0  0  0
   52.7053   -5.0283   -6.1809 C   0  0  0  0  0  0  0  0  0  0  0  0
   53.8949   -5.7175   -6.1667 C   0  0  0  0  0  0  0  0  0  0  0  0
   52.6063   -4.0959   -7.2974 C   0  0  0  0  0  0  0  0  0  0  0  0
   51.5547   -3.2501   -7.6218 C   0  0  0  0  0  0  0  0  0  0  0  0
   51.6555   -2.4398   -8.7258 C   0  0  0  0  0  0  0  0  0  0  0  0
   52.7652   -2.4819   -9.4663 N   0  0  0  0  0  0  0  0  0  0  0  0
   53.7811   -3.2905   -9.1634 C   0  0  0  0  0  0  0  0  0  0  0  0
   53.6876   -4.0847   -8.0854 N   0  0  0  0  0  0  0  0  0  0  0  0
   50.3180   -3.0823   -6.9503 N   0  0  0  0  0  0  0  0  0  0  0  0
   49.8727   -3.7395   -5.7750 N   0  0  0  0  0  0  0  0  0  0  0  0
   50.4677   -4.6316   -5.0605 C   0  0  0  0  0  0  0  0  0  0  0  0
   56.1664   -7.0414   -4.6718 H   0  0  0  0  0  0  0  0  0  0  0  0
   49.6631   -2.3911   -7.3785 H   0  0  0  0  0  0  0  0  0  0  0  0
   54.9548   -3.3087   -9.9799 N   0  0  0  0  0  0  0  0  0  0  0  0
   55.1418   -2.4569  -10.5693 H   0  0  0  0  0  0  0  0  0  0  0  0
   55.8934   -4.3945  -10.0573 C   0  0  0  0  0  0  0  0  0  0  0  0
   56.8475   -4.3973   -8.9202 C   0  0  0  0  0  0  0  0  0  0  0  0
   58.0505   -5.2679   -9.1187 C   0  0  0  0  0  0  0  0  0  0  0  0
   58.2939   -5.6432  -10.4844 N   0  0  0  0  0  0  0  0  0  0  0  0
   58.0415   -4.5067  -11.3697 C   0  0  0  0  0  0  0  0  0  0  0  0
   56.5535   -4.3212  -11.4175 C   0  0  0  0  0  0  0  0  0  0  0  0
   59.2569   -6.0019  -10.5615 H   0  0  0  0  0  0  0  0  0  0  0  0
  1  2  1  0  0  0
  2  3  2  0  0  0
  3  4  1  0  0  0
  4  5  2  0  0  0
  5  6  1  0  0  0
  6  7  2  0  0  0
  6  8  1  0  0  0
  8  9  2  0  0  0
  9 10  1  0  0  0
 10 11  2  0  0  0
 11 12  1  0  0  0
 12 19  1  0  0  0
 19 21  1  0  0  0
 21 22  1  0  0  0
 22 23  1  0  0  0
 23 24  1  0  0  0
 24 25  1  0  0  0
 25 26  1  0  0  0
 12 13  2  0  0  0
  9 14  1  0  0  0
 14 15  1  0  0  0
 15 16  2  0  0  0
  7  2  1  0  0  0
 13  8  1  0  0  0
 16  5  1  0  0  0
 26 21  1  0  0  0
  1 17  1  0  0  0
 19 20  1  0  0  0
 24 27  1  0  0  0
 14 18  1  0  0  0
M  END
> <minimizedAffinity>
-9.63119

> <CNNscore>
0.6830391884

> <CNNaffinity>
6.7767348289

> <CNN_VS>
4.6287755966

> <CNNaffinity_variance>
0.0347696766

$$$$
[H]Oc1c([H])c([H])c2c(c1[H])-c1nc(N([H])C3([H])C([H])([H])C([H])([H])N([H])C([H])([H])C3([H])[H])nc([H])c1N([H])N=C2[H]


 27 30  0  0  0  0  0  0  0  0999 V2000
   48.6767   -4.4547   -3.2786 O   0  0  0  0  0  0  0  0  0  0  0  0
   49.3489   -4.0775   -4.4183 C   0  0  0  0  0  0  0  0  0  0  0  0
   48.7867   -3.1159   -5.2302 C   0  0  0  0  0  0  0  0  0  0  0  0
   49.4755   -2.7532   -6.3652 C   0  0  0  0  0  0  0  0  0  0  0  0
   50.6990   -3.3269   -6.6976 C   0  0  0  0  0  0  0  0  0  0  0  0
   51.2442   -4.2876   -5.8714 C   0  0  0  0  0  0  0  0  0  0  0  0
   50.5751   -4.6668   -4.7316 C   0  0  0  0  0  0  0  0  0  0  0  0
   52.5048   -4.9982   -6.0488 C   0  0  0  0  0  0  0  0  0  0  0  0
   53.4256   -4.8733   -7.0799 C   0  0  0  0  0  0  0  0  0  0  0  0
   54.5644   -5.6403   -7.0650 C   0  0  0  0  0  0  0  0  0  0  0  0
   54.7636   -6.4924   -6.0572 N   0  0  0  0  0  0  0  0  0  0  0  0
   53.8856   -6.6200   -5.0619 C   0  0  0  0  0  0  0  0  0  0  0  0
   52.7708   -5.8727   -5.0716 N   0  0  0  0  0  0  0  0  0  0  0  0
   53.3699   -4.0259   -8.2145 N   0  0  0  0  0  0  0  0  0  0  0  0
   52.3553   -3.0946   -8.5530 N   0  0  0  0  0  0  0  0  0  0  0  0
   51.2636   -2.8110   -7.9301 C   0  0  0  0  0  0  0  0  0  0  0  0
   48.7857   -4.0266   -2.3789 H   0  0  0  0  0  0  0  0  0  0  0  0
   54.1756   -4.1031   -8.8741 H   0  0  0  0  0  0  0  0  0  0  0  0
   54.1324   -7.5433   -3.9982 N   0  0  0  0  0  0  0  0  0  0  0  0
   54.5464   -8.4752   -4.2591 H   0  0  0  0  0  0  0  0  0  0  0  0
   53.8601   -7.2980   -2.6085 C   0  0  0  0  0  0  0  0  0  0  0  0
   52.4610   -7.6308   -2.2406 C   0  0  0  0  0  0  0  0  0  0  0  0
   52.0150   -7.0764   -0.9222 C   0  0  0  0  0  0  0  0  0  0  0  0
   52.8391   -6.0140   -0.4146 N   0  0  0  0  0  0  0  0  0  0  0  0
   53.2344   -5.1215   -1.5036 C   0  0  0  0  0  0  0  0  0  0  0  0
   54.2502   -5.8641   -2.3207 C   0  0  0  0  0  0  0  0  0  0  0  0
   52.3249   -5.5262    0.3334 H   0  0  0  0  0  0  0  0  0  0  0  0
  1  2  1  0  0  0
  2  3  2  0  0  0
  3  4  1  0  0  0
  4  5  2  0  0  0
  5  6  1  0  0  0
  6  7  2  0  0  0
  6  8  1  0  0  0
  8  9  2  0  0  0
  9 10  1  0  0  0
 10 11  2  0  0  0
 11 12  1  0  0  0
 12 19  1  0  0  0
 19 21  1  0  0  0
 21 22  1  0  0  0
 22 23  1  0  0  0
 23 24  1  0  0  0
 24 25  1  0  0  0
 25 26  1  0  0  0
 12 13  2  0  0  0
  9 14  1  0  0  0
 14 15  1  0  0  0
 15 16  2  0  0  0
  7  2  1  0  0  0
 13  8  1  0  0  0
 16  5  1  0  0  0
 26 21  1  0  0  0
  1 17  1  0  0  0
 19 20  1  0  0  0
 24 27  1  0  0  0
 14 18  1  0  0  0
M  END
> <minimizedAffinity>
-9.45739

> <CNNscore>
0.6752816439

> <CNNaffinity>
6.8607759476

> <CNN_VS>
4.6329560280

> <CNNaffinity_variance>
0.2211808711

$$$$
[H]Oc1c([H])c([H])c2c(c1[H])-c1nc(N([H])C3([H])C([H])([H])C([H])([H])N([H])C([H])([H])C3([H])[H])nc([H])c1N([H])N=C2[H]


 27 30  0  0  0  0  0  0  0  0999 V2000
   54.7756   -6.6644   -4.4069 O   0  0  0  0  0  0  0  0  0  0  0  0
   54.4157   -5.9569   -5.5307 C   0  0  0  0  0  0  0  0  0  0  0  0
   53.1282   -5.4736   -5.6239 C   0  0  0  0  0  0  0  0  0  0  0  0
   52.7890   -4.7686   -6.7563 C   0  0  0  0  0  0  0  0  0  0  0  0
   53.7015   -4.5420   -7.7821 C   0  0  0  0  0  0  0  0  0  0  0  0
   54.9851   -5.0344   -7.6690 C   0  0  0  0  0  0  0  0  0  0  0  0
   55.3481   -5.7418   -6.5472 C   0  0  0  0  0  0  0  0  0  0  0  0
   56.0739   -4.9014   -8.6294 C   0  0  0  0  0  0  0  0  0  0  0  0
   56.0618   -4.2620   -9.8613 C   0  0  0  0  0  0  0  0  0  0  0  0
   57.2023   -4.2471  -10.6258 C   0  0  0  0  0  0  0  0  0  0  0  0
   58.3021   -4.8491  -10.1680 N   0  0  0  0  0  0  0  0  0  0  0  0
   58.3245   -5.4659   -8.9862 C   0  0  0  0  0  0  0  0  0  0  0  0
   57.2124   -5.4835   -8.2349 N   0  0  0  0  0  0  0  0  0  0  0  0
   54.9905   -3.5807  -10.4911 N   0  0  0  0  0  0  0  0  0  0  0  0
   53.6758   -3.3855   -9.9961 N   0  0  0  0  0  0  0  0  0  0  0  0
   53.1516   -3.7801   -8.8872 C   0  0  0  0  0  0  0  0  0  0  0  0
   55.1615   -6.2623   -3.5738 H   0  0  0  0  0  0  0  0  0  0  0  0
   55.2032   -3.1780  -11.4306 H   0  0  0  0  0  0  0  0  0  0  0  0
   59.5212   -6.1002   -8.5278 N   0  0  0  0  0  0  0  0  0  0  0  0
   59.6155   -6.2532   -7.4906 H   0  0  0  0  0  0  0  0  0  0  0  0
   60.5991   -6.5424   -9.3695 C   0  0  0  0  0  0  0  0  0  0  0  0
   60.4934   -7.9831   -9.7110 C   0  0  0  0  0  0  0  0  0  0  0  0
   61.7445   -8.5824  -10.2768 C   0  0  0  0  0  0  0  0  0  0  0  0
   62.9329   -7.8091  -10.0422 N   0  0  0  0  0  0  0  0  0  0  0  0
   62.9156   -7.2612   -8.6863 C   0  0  0  0  0  0  0  0  0  0  0  0
   61.8920   -6.1643   -8.6792 C   0  0  0  0  0  0  0  0  0  0  0  0
   63.7547   -8.4048  -10.2205 H   0  0  0  0  0  0  0  0  0  0  0  0
  1  2  1  0  0  0
  2  3  2  0  0  0
  3  4  1  0  0  0
  4  5  2  0  0  0
  5  6  1  0  0  0
  6  7  2  0  0  0
  6  8  1  0  0  0
  8  9  2  0  0  0
  9 10  1  0  0  0
 10 11  2  0  0  0
 11 12  1  0  0  0
 12 19  1  0  0  0
 19 21  1  0  0  0
 21 22  1  0  0  0
 22 23  1  0  0  0
 23 24  1  0  0  0
 24 25  1  0  0  0
 25 26  1  0  0  0
 12 13  2  0  0  0
  9 14  1  0  0  0
 14 15  1  0  0  0
 15 16  2  0  0  0
  7  2  1  0  0  0
 13  8  1  0  0  0
 16  5  1  0  0  0
 26 21  1  0  0  0
  1 17  1  0  0  0
 19 20  1  0  0  0
 24 27  1  0  0  0
 14 18  1  0  0  0
M  END
> <minimizedAffinity>
-7.84116

> <CNNscore>
0.6266476512

> <CNNaffinity>
5.7600450516

> <CNN_VS>
3.6095187664

> <CNNaffinity_variance>
0.0846622735

$$$$
[H]Oc1c([H])c([H])c2c(c1[H])-c1nc(N([H])C3([H])C([H])([H])C([H])([H])N([H])C([H])([H])C3([H])[H])nc([H])c1N([H])N=C2[H]


 27 30  0  0  0  0  0  0  0  0999 V2000
   58.2457   -5.8409   -7.8503 O   0  0  0  0  0  0  0  0  0  0  0  0
   57.1016   -5.2024   -8.2702 C   0  0  0  0  0  0  0  0  0  0  0  0
   57.1366   -4.4901   -9.4497 C   0  0  0  0  0  0  0  0  0  0  0  0
   55.9814   -3.8589   -9.8515 C   0  0  0  0  0  0  0  0  0  0  0  0
   54.8088   -3.9269   -9.1052 C   0  0  0  0  0  0  0  0  0  0  0  0
   54.7952   -4.6451   -7.9276 C   0  0  0  0  0  0  0  0  0  0  0  0
   55.9368   -5.2845   -7.5051 C   0  0  0  0  0  0  0  0  0  0  0  0
   53.6732   -4.8317   -7.0155 C   0  0  0  0  0  0  0  0  0  0  0  0
   52.3837   -4.3294   -7.1230 C   0  0  0  0  0  0  0  0  0  0  0  0
   51.4614   -4.6219   -6.1487 C   0  0  0  0  0  0  0  0  0  0  0  0
   51.8242   -5.3852   -5.1156 N   0  0  0  0  0  0  0  0  0  0  0  0
   53.0599   -5.8728   -5.0028 C   0  0  0  0  0  0  0  0  0  0  0  0
   53.9653   -5.5898   -5.9523 N   0  0  0  0  0  0  0  0  0  0  0  0
   51.8377   -3.5119   -8.1438 N   0  0  0  0  0  0  0  0  0  0  0  0
   52.4882   -3.0245   -9.3061 N   0  0  0  0  0  0  0  0  0  0  0  0
   53.7040   -3.1962   -9.6966 C   0  0  0  0  0  0  0  0  0  0  0  0
   58.4995   -6.7809   -8.0882 H   0  0  0  0  0  0  0  0  0  0  0  0
   50.8374   -3.2410   -8.0171 H   0  0  0  0  0  0  0  0  0  0  0  0
   53.4128   -6.6874   -3.8819 N   0  0  0  0  0  0  0  0  0  0  0  0
   52.8897   -7.5933   -3.7642 H   0  0  0  0  0  0  0  0  0  0  0  0
   54.4209   -6.3662   -2.9091 C   0  0  0  0  0  0  0  0  0  0  0  0
   54.7868   -7.5343   -2.0693 C   0  0  0  0  0  0  0  0  0  0  0  0
   55.5532   -7.1933   -0.8280 C   0  0  0  0  0  0  0  0  0  0  0  0
   55.4771   -5.8107   -0.4433 N   0  0  0  0  0  0  0  0  0  0  0  0
   54.1180   -5.3086   -0.6421 C   0  0  0  0  0  0  0  0  0  0  0  0
   53.9225   -5.1724   -2.1233 C   0  0  0  0  0  0  0  0  0  0  0  0
   55.7958   -5.7217    0.5327 H   0  0  0  0  0  0  0  0  0  0  0  0
  1  2  1  0  0  0
  2  3  2  0  0  0
  3  4  1  0  0  0
  4  5  2  0  0  0
  5  6  1  0  0  0
  6  7  2  0  0  0
  6  8  1  0  0  0
  8  9  2  0  0  0
  9 10  1  0  0  0
 10 11  2  0  0  0
 11 12  1  0  0  0
 12 19  1  0  0  0
 19 21  1  0  0  0
 21 22  1  0  0  0
 22 23  1  0  0  0
 23 24  1  0  0  0
 24 25  1  0  0  0
 25 26  1  0  0  0
 12 13  2  0  0  0
  9 14  1  0  0  0
 14 15  1  0  0  0
 15 16  2  0  0  0
  7  2  1  0  0  0
 13  8  1  0  0  0
 16  5  1  0  0  0
 26 21  1  0  0  0
  1 17  1  0  0  0
 19 20  1  0  0  0
 24 27  1  0  0  0
 14 18  1  0  0  0
M  END
> <minimizedAffinity>
-8.79680

> <CNNscore>
0.5923197865

> <CNNaffinity>
6.6088042259

> <CNN_VS>
3.9145255089

> <CNNaffinity_variance>
0.4170442224

$$$$
[H]Oc1c([H])c([H])c2c(c1[H])-c1nc(N([H])C3([H])C([H])([H])C([H])([H])N([H])C([H])([H])C3([H])[H])nc([H])c1N([H])N=C2[H]


 27 30  0  0  0  0  0  0  0  0999 V2000
   57.8064   -5.8262   -7.3066 O   0  0  0  0  0  0  0  0  0  0  0  0
   56.6690   -5.2146   -7.7811 C   0  0  0  0  0  0  0  0  0  0  0  0
   56.7227   -4.5714   -8.9990 C   0  0  0  0  0  0  0  0  0  0  0  0
   55.5738   -3.9661   -9.4551 C   0  0  0  0  0  0  0  0  0  0  0  0
   54.3894   -3.9925   -8.7251 C   0  0  0  0  0  0  0  0  0  0  0  0
   54.3571   -4.6417   -7.5084 C   0  0  0  0  0  0  0  0  0  0  0  0
   55.4920   -5.2540   -7.0314 C   0  0  0  0  0  0  0  0  0  0  0  0
   53.2206   -4.7768   -6.6052 C   0  0  0  0  0  0  0  0  0  0  0  0
   51.9328   -4.2834   -6.7623 C   0  0  0  0  0  0  0  0  0  0  0  0
   50.9950   -4.5205   -5.7877 C   0  0  0  0  0  0  0  0  0  0  0  0
   51.3413   -5.2225   -4.7066 N   0  0  0  0  0  0  0  0  0  0  0  0
   52.5754   -5.7010   -4.5460 C   0  0  0  0  0  0  0  0  0  0  0  0
   53.4959   -5.4720   -5.4955 N   0  0  0  0  0  0  0  0  0  0  0  0
   51.4030   -3.5269   -7.8372 N   0  0  0  0  0  0  0  0  0  0  0  0
   52.0719   -3.1065   -9.0151 N   0  0  0  0  0  0  0  0  0  0  0  0
   53.2940   -3.2987   -9.3753 C   0  0  0  0  0  0  0  0  0  0  0  0
   58.0645   -6.7780   -7.4858 H   0  0  0  0  0  0  0  0  0  0  0  0
   50.4006   -3.2505   -7.7425 H   0  0  0  0  0  0  0  0  0  0  0  0
   52.9105   -6.4491   -3.3743 N   0  0  0  0  0  0  0  0  0  0  0  0
   53.8638   -6.2869   -2.9585 H   0  0  0  0  0  0  0  0  0  0  0  0
   52.0507   -7.4002   -2.7246 C   0  0  0  0  0  0  0  0  0  0  0  0
   51.1248   -6.7561   -1.7595 C   0  0  0  0  0  0  0  0  0  0  0  0
   50.4617   -7.7026   -0.8062 C   0  0  0  0  0  0  0  0  0  0  0  0
   51.0962   -8.9882   -0.7069 N   0  0  0  0  0  0  0  0  0  0  0  0
   52.5503   -8.8319   -0.7121 C   0  0  0  0  0  0  0  0  0  0  0  0
   52.9380   -8.4636   -2.1139 C   0  0  0  0  0  0  0  0  0  0  0  0
   50.7497   -9.4628    0.1397 H   0  0  0  0  0  0  0  0  0  0  0  0
  1  2  1  0  0  0
  2  3  2  0  0  0
  3  4  1  0  0  0
  4  5  2  0  0  0
  5  6  1  0  0  0
  6  7  2  0  0  0
  6  8  1  0  0  0
  8  9  2  0  0  0
  9 10  1  0  0  0
 10 11  2  0  0  0
 11 12  1  0  0  0
 12 19  1  0  0  0
 19 21  1  0  0  0
 21 22  1  0  0  0
 22 23  1  0  0  0
 23 24  1  0  0  0
 24 25  1  0  0  0
 25 26  1  0  0  0
 12 13  2  0  0  0
  9 14  1  0  0  0
 14 15  1  0  0  0
 15 16  2  0  0  0
  7  2  1  0  0  0
 13  8  1  0  0  0
 16  5  1  0  0  0
 26 21  1  0  0  0
  1 17  1  0  0  0
 19 20  1  0  0  0
 24 27  1  0  0  0
 14 18  1  0  0  0
M  END
> <minimizedAffinity>
-8.45648

> <CNNscore>
0.5575486422

> <CNNaffinity>
6.6115922928

> <CNN_VS>
3.6862843037

> <CNNaffinity_variance>
0.3272082806

$$$$
[H]Oc1c([H])c([H])c2c(c1[H])-c1nc(N([H])C3([H])C([H])([H])C([H])([H])N([H])C([H])([H])C3([H])[H])nc([H])c1N([H])N=C2[H]


 27 30  0  0  0  0  0  0  0  0999 V2000
   54.5387   -6.6579   -3.8080 O   0  0  0  0  0  0  0  0  0  0  0  0
   55.1335   -6.2116   -4.9655 C   0  0  0  0  0  0  0  0  0  0  0  0
   56.4550   -6.5291   -5.1951 C   0  0  0  0  0  0  0  0  0  0  0  0
   57.0307   -6.0727   -6.3590 C   0  0  0  0  0  0  0  0  0  0  0  0
   56.3182   -5.3153   -7.2838 C   0  0  0  0  0  0  0  0  0  0  0  0
   54.9965   -5.0086   -7.0347 C   0  0  0  0  0  0  0  0  0  0  0  0
   54.3990   -5.4532   -5.8790 C   0  0  0  0  0  0  0  0  0  0  0  0
   54.0922   -4.2335   -7.8757 C   0  0  0  0  0  0  0  0  0  0  0  0
   54.3569   -3.6322   -9.0984 C   0  0  0  0  0  0  0  0  0  0  0  0
   53.3603   -2.9388   -9.7398 C   0  0  0  0  0  0  0  0  0  0  0  0
   52.1544   -2.8568   -9.1735 N   0  0  0  0  0  0  0  0  0  0  0  0
   51.8897   -3.4307   -7.9995 C   0  0  0  0  0  0  0  0  0  0  0  0
   52.8603   -4.1096   -7.3683 N   0  0  0  0  0  0  0  0  0  0  0  0
   55.5691   -3.6219   -9.8324 N   0  0  0  0  0  0  0  0  0  0  0  0
   56.7982   -4.2394   -9.4865 N   0  0  0  0  0  0  0  0  0  0  0  0
   57.1013   -4.9316   -8.4429 C   0  0  0  0  0  0  0  0  0  0  0  0
   54.0583   -7.5320   -3.7088 H   0  0  0  0  0  0  0  0  0  0  0  0
   55.5456   -3.0949  -10.7334 H   0  0  0  0  0  0  0  0  0  0  0  0
   50.5858   -3.3220   -7.4228 N   0  0  0  0  0  0  0  0  0  0  0  0
   49.7751   -3.2217   -8.0867 H   0  0  0  0  0  0  0  0  0  0  0  0
   50.2987   -3.3390   -6.0146 C   0  0  0  0  0  0  0  0  0  0  0  0
   50.1356   -4.7175   -5.4889 C   0  0  0  0  0  0  0  0  0  0  0  0
   49.4964   -4.7967   -4.1362 C   0  0  0  0  0  0  0  0  0  0  0  0
   48.7996   -3.6047   -3.7373 N   0  0  0  0  0  0  0  0  0  0  0  0
   48.0706   -3.0452   -4.8750 C   0  0  0  0  0  0  0  0  0  0  0  0
   49.0970   -2.4462   -5.7906 C   0  0  0  0  0  0  0  0  0  0  0  0
   48.1840   -3.8327   -2.9429 H   0  0  0  0  0  0  0  0  0  0  0  0
  1  2  1  0  0  0
  2  3  2  0  0  0
  3  4  1  0  0  0
  4  5  2  0  0  0
  5  6  1  0  0  0
  6  7  2  0  0  0
  6  8  1  0  0  0
  8  9  2  0  0  0
  9 10  1  0  0  0
 10 11  2  0  0  0
 11 12  1  0  0  0
 12 19  1  0  0  0
 19 21  1  0  0  0
 21 22  1  0  0  0
 22 23  1  0  0  0
 23 24  1  0  0  0
 24 25  1  0  0  0
 25 26  1  0  0  0
 12 13  2  0  0  0
  9 14  1  0  0  0
 14 15  1  0  0  0
 15 16  2  0  0  0
  7  2  1  0  0  0
 13  8  1  0  0  0
 16  5  1  0  0  0
 26 21  1  0  0  0
  1 17  1  0  0  0
 19 20  1  0  0  0
 24 27  1  0  0  0
 14 18  1  0  0  0
M  END
> <minimizedAffinity>
-8.65584

> <CNNscore>
0.5547857285

> <CNNaffinity>
6.8203973770

> <CNN_VS>
3.7838590145

> <CNNaffinity_variance>
0.1375449449

$$$$
