[H]OC([H])([H])[C@@]1([H])O[C@@]([H])(n2c([H])nc3c(N([H])[H])nc([H])nc32)[C@]([H])(O[H])[C@@]([H])(O[H])[C@]1([H])O[H]


 27 29  0  0  0  0  0  0  0  0999 V2000
   53.9643   -7.4416   -2.6489 C   0  0  0  0  0  0  0  0  0  0  0  0
   53.0305   -6.8372   -3.4752 O   0  0  0  0  0  0  0  0  0  0  0  0
   52.0244   -6.1884   -2.7913 C   0  0  0  0  0  0  0  0  0  0  0  0
   51.2315   -7.2149   -2.0368 C   0  0  0  0  0  0  0  0  0  0  0  0
   50.1288   -6.6561   -1.3829 O   0  0  0  0  0  0  0  0  0  0  0  0
   52.1594   -7.7093   -0.9181 C   0  0  0  0  0  0  0  0  0  0  0  0
   51.5408   -8.7583   -0.2156 O   0  0  0  0  0  0  0  0  0  0  0  0
   53.3904   -8.2537   -1.5493 C   0  0  0  0  0  0  0  0  0  0  0  0
   54.3653   -8.3858   -0.5336 O   0  0  0  0  0  0  0  0  0  0  0  0
   49.4513   -7.3712   -1.2793 H   0  0  0  0  0  0  0  0  0  0  0  0
   51.1539   -8.4006    0.6150 H   0  0  0  0  0  0  0  0  0  0  0  0
   54.0065   -8.1479    0.3515 H   0  0  0  0  0  0  0  0  0  0  0  0
   51.2533   -5.4133   -3.7277 N   0  0  0  0  0  0  0  0  0  0  0  0
   50.0645   -4.8915   -3.4566 C   0  0  0  0  0  0  0  0  0  0  0  0
   49.6265   -4.2327   -4.5442 N   0  0  0  0  0  0  0  0  0  0  0  0
   50.5346   -4.3309   -5.5155 C   0  0  0  0  0  0  0  0  0  0  0  0
   50.6165   -3.8604   -6.8230 C   0  0  0  0  0  0  0  0  0  0  0  0
   49.5600   -3.0941   -7.3522 N   0  0  0  0  0  0  0  0  0  0  0  0
   51.7272   -4.1731   -7.5208 N   0  0  0  0  0  0  0  0  0  0  0  0
   52.7128   -4.9018   -6.9920 C   0  0  0  0  0  0  0  0  0  0  0  0
   52.6571   -5.3660   -5.7358 N   0  0  0  0  0  0  0  0  0  0  0  0
   51.5688   -5.0801   -5.0000 C   0  0  0  0  0  0  0  0  0  0  0  0
   48.8544   -3.5394   -7.9534 H   0  0  0  0  0  0  0  0  0  0  0  0
   49.4973   -2.0903   -7.1356 H   0  0  0  0  0  0  0  0  0  0  0  0
   55.8735   -8.8323   -2.8811 O   0  0  0  0  0  0  0  0  0  0  0  0
   54.7569   -8.3926   -3.5566 C   0  0  0  0  0  0  0  0  0  0  0  0
   55.6931   -9.0480   -1.9326 H   0  0  0  0  0  0  0  0  0  0  0  0
 25 26  1  0  0  0
 26  1  1  0  0  0
  1  2  1  0  0  0
  2  3  1  0  0  0
  3  4  1  0  0  0
  4  5  1  0  0  0
  4  6  1  0  0  0
  6  7  1  0  0  0
  6  8  1  0  0  0
  8  9  1  0  0  0
  3 13  1  0  0  0
 13 14  1  0  0  0
 14 15  2  0  0  0
 15 16  1  0  0  0
 16 17  2  0  0  0
 17 18  1  0  0  0
 17 19  1  0  0  0
 19 20  2  0  0  0
 20 21  1  0  0  0
 21 22  2  0  0  0
  8  1  1  0  0  0
 22 13  1  0  0  0
 22 16  1  0  0  0
 25 27  1  0  0  0
  5 10  1  0  0  0
  7 11  1  0  0  0
  9 12  1  0  0  0
 18 23  1  0  0  0
 18 24  1  0  0  0
M  END
> <minimizedAffinity>
-7.44885

> <CNNscore>
0.7629424930

> <CNNaffinity>
5.1267023087

> <CNN_VS>
3.9113790989

> <CNNaffinity_variance>
0.2660196722

$$$$
[H]OC([H])([H])[C@@]1([H])O[C@@]([H])(n2c([H])nc3c(N([H])[H])nc([H])nc32)[C@]([H])(O[H])[C@@]([H])(O[H])[C@]1([H])O[H]


 27 29  0  0  0  0  0  0  0  0999 V2000
   49.3985   -4.0106   -4.9153 C   0  0  0  0  0  0  0  0  0  0  0  0
   50.5499   -3.9581   -5.6846 O   0  0  0  0  0  0  0  0  0  0  0  0
   51.3305   -5.0906   -5.5900 C   0  0  0  0  0  0  0  0  0  0  0  0
   51.8388   -5.1946   -4.1819 C   0  0  0  0  0  0  0  0  0  0  0  0
   52.7179   -6.2693   -4.0147 O   0  0  0  0  0  0  0  0  0  0  0  0
   50.6108   -5.5375   -3.3267 C   0  0  0  0  0  0  0  0  0  0  0  0
   50.9670   -5.5514   -1.9667 O   0  0  0  0  0  0  0  0  0  0  0  0
   49.6028   -4.4617   -3.5180 C   0  0  0  0  0  0  0  0  0  0  0  0
   48.3704   -4.9410   -3.0169 O   0  0  0  0  0  0  0  0  0  0  0  0
   53.3149   -6.0492   -3.2556 H   0  0  0  0  0  0  0  0  0  0  0  0
   51.1045   -6.4831   -1.6831 H   0  0  0  0  0  0  0  0  0  0  0  0
   48.4617   -5.8339   -2.6130 H   0  0  0  0  0  0  0  0  0  0  0  0
   52.3633   -5.0258   -6.5906 N   0  0  0  0  0  0  0  0  0  0  0  0
   53.3496   -5.9062   -6.6962 C   0  0  0  0  0  0  0  0  0  0  0  0
   54.1326   -5.5519   -7.7306 N   0  0  0  0  0  0  0  0  0  0  0  0
   53.6494   -4.4427   -8.2908 C   0  0  0  0  0  0  0  0  0  0  0  0
   54.0369   -3.6455   -9.3641 C   0  0  0  0  0  0  0  0  0  0  0  0
   55.1855   -3.9878  -10.1036 N   0  0  0  0  0  0  0  0  0  0  0  0
   53.2724   -2.5691   -9.6383 N   0  0  0  0  0  0  0  0  0  0  0  0
   52.1884   -2.2698   -8.9190 C   0  0  0  0  0  0  0  0  0  0  0  0
   51.7952   -3.0216   -7.8814 N   0  0  0  0  0  0  0  0  0  0  0  0
   52.5258   -4.1061   -7.5691 C   0  0  0  0  0  0  0  0  0  0  0  0
   56.0784   -3.5142   -9.9129 H   0  0  0  0  0  0  0  0  0  0  0  0
   55.1280   -4.7112  -10.8329 H   0  0  0  0  0  0  0  0  0  0  0  0
   47.5932   -2.5709   -4.3667 O   0  0  0  0  0  0  0  0  0  0  0  0
   48.8787   -2.5672   -4.8605 C   0  0  0  0  0  0  0  0  0  0  0  0
   47.4696   -3.1975   -3.6112 H   0  0  0  0  0  0  0  0  0  0  0  0
 25 26  1  0  0  0
 26  1  1  0  0  0
  1  2  1  0  0  0
  2  3  1  0  0  0
  3  4  1  0  0  0
  4  5  1  0  0  0
  4  6  1  0  0  0
  6  7  1  0  0  0
  6  8  1  0  0  0
  8  9  1  0  0  0
  3 13  1  0  0  0
 13 14  1  0  0  0
 14 15  2  0  0  0
 15 16  1  0  0  0
 16 17  2  0  0  0
 17 18  1  0  0  0
 17 19  1  0  0  0
 19 20  2  0  0  0
 20 21  1  0  0  0
 21 22  2  0  0  0
  8  1  1  0  0  0
 22 13  1  0  0  0
 22 16  1  0  0  0
 25 27  1  0  0  0
  5 10  1  0  0  0
  7 11  1  0  0  0
  9 12  1  0  0  0
 18 23  1  0  0  0
 18 24  1  0  0  0
M  END
> <minimizedAffinity>
-8.33999

> <CNNscore>
0.6213934422

> <CNNaffinity>
5.5768556595

> <CNN_VS>
3.4654214382

> <CNNaffinity_variance>
0.2270400077

$$$$
[H]OC([H])([H])[C@@]1([H])O[C@@]([H])(n2c([H])nc3c(N([H])[H])nc([H])nc32)[C@]([H])(O[H])[C@@]([H])(O[H])[C@]1([H])O[H]


 27 29  0  0  0  0  0  0  0  0999 V2000
   54.4995   -6.8849   -2.9227 C   0  0  0  0  0  0  0  0  0  0  0  0
   53.7481   -6.4637   -4.0081 O   0  0  0  0  0  0  0  0  0  0  0  0
   52.5227   -5.9358   -3.6610 C   0  0  0  0  0  0  0  0  0  0  0  0
   51.6964   -7.0291   -3.0496 C   0  0  0  0  0  0  0  0  0  0  0  0
   50.3980   -6.6057   -2.7485 O   0  0  0  0  0  0  0  0  0  0  0  0
   52.3507   -7.3283   -1.6934 C   0  0  0  0  0  0  0  0  0  0  0  0
   51.7077   -8.4208   -1.0856 O   0  0  0  0  0  0  0  0  0  0  0  0
   53.7639   -7.7176   -1.9411 C   0  0  0  0  0  0  0  0  0  0  0  0
   54.4441   -7.6570   -0.7028 O   0  0  0  0  0  0  0  0  0  0  0  0
   49.8144   -7.4059   -2.7610 H   0  0  0  0  0  0  0  0  0  0  0  0
   51.0725   -8.0833   -0.4146 H   0  0  0  0  0  0  0  0  0  0  0  0
   53.8366   -7.4312    0.0379 H   0  0  0  0  0  0  0  0  0  0  0  0
   51.9341   -5.3276   -4.8255 N   0  0  0  0  0  0  0  0  0  0  0  0
   52.4070   -5.4714   -6.0562 C   0  0  0  0  0  0  0  0  0  0  0  0
   51.6251   -4.7757   -6.9008 N   0  0  0  0  0  0  0  0  0  0  0  0
   50.6484   -4.1840   -6.2125 C   0  0  0  0  0  0  0  0  0  0  0  0
   49.5780   -3.3615   -6.5522 C   0  0  0  0  0  0  0  0  0  0  0  0
   49.3782   -3.0038   -7.8996 N   0  0  0  0  0  0  0  0  0  0  0  0
   48.7782   -2.9470   -5.5489 N   0  0  0  0  0  0  0  0  0  0  0  0
   48.9928   -3.3029   -4.2803 C   0  0  0  0  0  0  0  0  0  0  0  0
   50.0164   -4.0936   -3.9283 N   0  0  0  0  0  0  0  0  0  0  0  0
   50.8420   -4.5326   -4.8943 C   0  0  0  0  0  0  0  0  0  0  0  0
   49.7041   -2.0902   -8.2415 H   0  0  0  0  0  0  0  0  0  0  0  0
   48.9065   -3.6579   -8.5384 H   0  0  0  0  0  0  0  0  0  0  0  0
   55.6103   -8.9821   -2.8924 O   0  0  0  0  0  0  0  0  0  0  0  0
   55.6188   -7.7533   -3.5140 C   0  0  0  0  0  0  0  0  0  0  0  0
   54.6984   -9.3368   -2.7468 H   0  0  0  0  0  0  0  0  0  0  0  0
 25 26  1  0  0  0
 26  1  1  0  0  0
  1  2  1  0  0  0
  2  3  1  0  0  0
  3  4  1  0  0  0
  4  5  1  0  0  0
  4  6  1  0  0  0
  6  7  1  0  0  0
  6  8  1  0  0  0
  8  9  1  0  0  0
  3 13  1  0  0  0
 13 14  1  0  0  0
 14 15  2  0  0  0
 15 16  1  0  0  0
 16 17  2  0  0  0
 17 18  1  0  0  0
 17 19  1  0  0  0
 19 20  2  0  0  0
 20 21  1  0  0  0
 21 22  2  0  0  0
  8  1  1  0  0  0
 22 13  1  0  0  0
 22 16  1  0  0  0
 25 27  1  0  0  0
  5 10  1  0  0  0
  7 11  1  0  0  0
  9 12  1  0  0  0
 18 23  1  0  0  0
 18 24  1  0  0  0
M  END
> <minimizedAffinity>
-6.43511

> <CNNscore>
0.5818375349

> <CNNaffinity>
4.9550151825

> <CNN_VS>
2.8830137253

> <CNNaffinity_variance>
0.1886960119

$$$$
[H]OC([H])([H])[C@@]1([H])O[C@@]([H])(n2c([H])nc3c(N([H])[H])nc([H])nc32)[C@]([H])(O[H])[C@@]([H])(O[H])[C@]1([H])O[H]


 27 29  0  0  0  0  0  0  0  0999 V2000
   55.7494   -5.2454   -2.9660 C   0  0  0  0  0  0  0  0  0  0  0  0
   56.1185   -5.0457   -4.2866 O   0  0  0  0  0  0  0  0  0  0  0  0
   55.3826   -5.7887   -5.1850 C   0  0  0  0  0  0  0  0  0  0  0  0
   55.6725   -7.2410   -4.9425 C   0  0  0  0  0  0  0  0  0  0  0  0
   55.0365   -8.0700   -5.8720 O   0  0  0  0  0  0  0  0  0  0  0  0
   55.0204   -7.5695   -3.5921 C   0  0  0  0  0  0  0  0  0  0  0  0
   55.3298   -8.8904   -3.2231 O   0  0  0  0  0  0  0  0  0  0  0  0
   55.6062   -6.6661   -2.5671 C   0  0  0  0  0  0  0  0  0  0  0  0
   54.7778   -6.7291   -1.4227 O   0  0  0  0  0  0  0  0  0  0  0  0
   55.5664   -8.9043   -5.9371 H   0  0  0  0  0  0  0  0  0  0  0  0
   54.5653   -9.4695   -3.4420 H   0  0  0  0  0  0  0  0  0  0  0  0
   54.0487   -7.3808   -1.5339 H   0  0  0  0  0  0  0  0  0  0  0  0
   55.6867   -5.3373   -6.5177 N   0  0  0  0  0  0  0  0  0  0  0  0
   56.8924   -5.4041   -7.0662 C   0  0  0  0  0  0  0  0  0  0  0  0
   56.8262   -4.9009   -8.3116 N   0  0  0  0  0  0  0  0  0  0  0  0
   55.5767   -4.5102   -8.5643 C   0  0  0  0  0  0  0  0  0  0  0  0
   54.9397   -3.9327   -9.6589 C   0  0  0  0  0  0  0  0  0  0  0  0
   55.6802   -3.6497  -10.8230 N   0  0  0  0  0  0  0  0  0  0  0  0
   53.6221   -3.6729   -9.5372 N   0  0  0  0  0  0  0  0  0  0  0  0
   52.9463   -3.9525   -8.4205 C   0  0  0  0  0  0  0  0  0  0  0  0
   53.5373   -4.5083   -7.3535 N   0  0  0  0  0  0  0  0  0  0  0  0
   54.8507   -4.7860   -7.4270 C   0  0  0  0  0  0  0  0  0  0  0  0
   56.0235   -2.6953  -10.9932 H   0  0  0  0  0  0  0  0  0  0  0  0
   55.8757   -4.3992  -11.5001 H   0  0  0  0  0  0  0  0  0  0  0  0
   57.5484   -5.6625   -1.4752 O   0  0  0  0  0  0  0  0  0  0  0  0
   56.8883   -4.6462   -2.1293 C   0  0  0  0  0  0  0  0  0  0  0  0
   57.6833   -6.4637   -2.0397 H   0  0  0  0  0  0  0  0  0  0  0  0
 25 26  1  0  0  0
 26  1  1  0  0  0
  1  2  1  0  0  0
  2  3  1  0  0  0
  3  4  1  0  0  0
  4  5  1  0  0  0
  4  6  1  0  0  0
  6  7  1  0  0  0
  6  8  1  0  0  0
  8  9  1  0  0  0
  3 13  1  0  0  0
 13 14  1  0  0  0
 14 15  2  0  0  0
 15 16  1  0  0  0
 16 17  2  0  0  0
 17 18  1  0  0  0
 17 19  1  0  0  0
 19 20  2  0  0  0
 20 21  1  0  0  0
 21 22  2  0  0  0
  8  1  1  0  0  0
 22 13  1  0  0  0
 22 16  1  0  0  0
 25 27  1  0  0  0
  5 10  1  0  0  0
  7 11  1  0  0  0
  9 12  1  0  0  0
 18 23  1  0  0  0
 18 24  1  0  0  0
M  END
> <minimizedAffinity>
-7.15519

> <CNNscore>
0.5651766658

> <CNNaffinity>
4.5305314064

> <CNN_VS>
2.5605506897

> <CNNaffinity_variance>
0.4698429108

$$$$
[H]OC([H])([H])[C@@]1([H])O[C@@]([H])(n2c([H])nc3c(N([H])[H])nc([H])nc32)[C@]([H])(O[H])[C@@]([H])(O[H])[C@]1([H])O[H]


 27 29  0  0  0  0  0  0  0  0999 V2000
   51.0762   -8.4107   -1.1940 C   0  0  0  0  0  0  0  0  0  0  0  0
   50.6383   -7.2782   -1.8618 O   0  0  0  0  0  0  0  0  0  0  0  0
   51.5641   -6.7640   -2.7446 C   0  0  0  0  0  0  0  0  0  0  0  0
   52.7490   -6.2863   -1.9576 C   0  0  0  0  0  0  0  0  0  0  0  0
   53.7048   -5.6630   -2.7661 O   0  0  0  0  0  0  0  0  0  0  0  0
   53.4300   -7.5567   -1.4293 C   0  0  0  0  0  0  0  0  0  0  0  0
   54.4982   -7.2078   -0.5844 O   0  0  0  0  0  0  0  0  0  0  0  0
   52.4370   -8.3056   -0.6150 C   0  0  0  0  0  0  0  0  0  0  0  0
   52.9444   -9.6114   -0.4224 O   0  0  0  0  0  0  0  0  0  0  0  0
   54.2092   -5.0299   -2.1952 H   0  0  0  0  0  0  0  0  0  0  0  0
   55.3393   -7.2766   -1.0897 H   0  0  0  0  0  0  0  0  0  0  0  0
   53.8424   -9.7163   -0.8112 H   0  0  0  0  0  0  0  0  0  0  0  0
   50.9296   -5.7453   -3.5394 N   0  0  0  0  0  0  0  0  0  0  0  0
   49.8500   -5.0743   -3.1606 C   0  0  0  0  0  0  0  0  0  0  0  0
   49.5226   -4.2036   -4.1318 N   0  0  0  0  0  0  0  0  0  0  0  0
   50.3925   -4.3147   -5.1362 C   0  0  0  0  0  0  0  0  0  0  0  0
   50.5432   -3.6841   -6.3680 C   0  0  0  0  0  0  0  0  0  0  0  0
   49.6294   -2.6835   -6.7517 N   0  0  0  0  0  0  0  0  0  0  0  0
   51.5782   -4.0773   -7.1377 N   0  0  0  0  0  0  0  0  0  0  0  0
   52.4286   -5.0292   -6.7469 C   0  0  0  0  0  0  0  0  0  0  0  0
   52.3043   -5.6508   -5.5659 N   0  0  0  0  0  0  0  0  0  0  0  0
   51.2872   -5.2929   -4.7629 C   0  0  0  0  0  0  0  0  0  0  0  0
   48.8530   -2.9137   -7.3857 H   0  0  0  0  0  0  0  0  0  0  0  0
   49.7414   -1.7245   -6.3963 H   0  0  0  0  0  0  0  0  0  0  0  0
   49.0052   -9.3176   -0.4721 O   0  0  0  0  0  0  0  0  0  0  0  0
   50.0951   -8.6020   -0.0290 C   0  0  0  0  0  0  0  0  0  0  0  0
   49.2496  -10.0635   -1.0743 H   0  0  0  0  0  0  0  0  0  0  0  0
 25 26  1  0  0  0
 26  1  1  0  0  0
  1  2  1  0  0  0
  2  3  1  0  0  0
  3  4  1  0  0  0
  4  5  1  0  0  0
  4  6  1  0  0  0
  6  7  1  0  0  0
  6  8  1  0  0  0
  8  9  1  0  0  0
  3 13  1  0  0  0
 13 14  1  0  0  0
 14 15  2  0  0  0
 15 16  1  0  0  0
 16 17  2  0  0  0
 17 18  1  0  0  0
 17 19  1  0  0  0
 19 20  2  0  0  0
 20 21  1  0  0  0
 21 22  2  0  0  0
  8  1  1  0  0  0
 22 13  1  0  0  0
 22 16  1  0  0  0
 25 27  1  0  0  0
  5 10  1  0  0  0
  7 11  1  0  0  0
  9 12  1  0  0  0
 18 23  1  0  0  0
 18 24  1  0  0  0
M  END
> <minimizedAffinity>
-7.47540

> <CNNscore>
0.5556350350

> <CNNaffinity>
4.8386516571

> <CNN_VS>
2.6885244846

> <CNNaffinity_variance>
0.2123094052

$$$$
[H]OC([H])([H])[C@@]1([H])O[C@@]([H])(n2c([H])nc3c(N([H])[H])nc([H])nc32)[C@]([H])(O[H])[C@@]([H])(O[H])[C@]1([H])O[H]


 27 29  0  0  0  0  0  0  0  0999 V2000
   54.1107   -6.6174   -2.7184 C   0  0  0  0  0  0  0  0  0  0  0  0
   53.2959   -5.7599   -3.4402 O   0  0  0  0  0  0  0  0  0  0  0  0
   52.9274   -6.2542   -4.6733 C   0  0  0  0  0  0  0  0  0  0  0  0
   54.1617   -6.3789   -5.5175 C   0  0  0  0  0  0  0  0  0  0  0  0
   53.8711   -6.7890   -6.8226 O   0  0  0  0  0  0  0  0  0  0  0  0
   54.9667   -7.5309   -4.8996 C   0  0  0  0  0  0  0  0  0  0  0  0
   56.2012   -7.6568   -5.5605 O   0  0  0  0  0  0  0  0  0  0  0  0
   55.2478   -7.1859   -3.4812 C   0  0  0  0  0  0  0  0  0  0  0  0
   55.6757   -8.3680   -2.8337 O   0  0  0  0  0  0  0  0  0  0  0  0
   54.5981   -6.4562   -7.4072 H   0  0  0  0  0  0  0  0  0  0  0  0
   56.1399   -8.3908   -6.2125 H   0  0  0  0  0  0  0  0  0  0  0  0
   55.7446   -9.1241   -3.4600 H   0  0  0  0  0  0  0  0  0  0  0  0
   51.9115   -5.3995   -5.2299 N   0  0  0  0  0  0  0  0  0  0  0  0
   50.6822   -5.2948   -4.7432 C   0  0  0  0  0  0  0  0  0  0  0  0
   49.9961   -4.4158   -5.4950 N   0  0  0  0  0  0  0  0  0  0  0  0
   50.7849   -3.9547   -6.4660 C   0  0  0  0  0  0  0  0  0  0  0  0
   50.6164   -3.0497   -7.5101 C   0  0  0  0  0  0  0  0  0  0  0  0
   49.3726   -2.4116   -7.6814 N   0  0  0  0  0  0  0  0  0  0  0  0
   51.6776   -2.8326   -8.3132 N   0  0  0  0  0  0  0  0  0  0  0  0
   52.8448   -3.4527   -8.1259 C   0  0  0  0  0  0  0  0  0  0  0  0
   53.0315   -4.3280   -7.1281 N   0  0  0  0  0  0  0  0  0  0  0  0
   52.0020   -4.5775   -6.3003 C   0  0  0  0  0  0  0  0  0  0  0  0
   48.7055   -2.7671   -8.3787 H   0  0  0  0  0  0  0  0  0  0  0  0
   49.1349   -1.5912   -7.1079 H   0  0  0  0  0  0  0  0  0  0  0  0
   53.8941   -4.6640   -1.3878 O   0  0  0  0  0  0  0  0  0  0  0  0
   54.6985   -5.7642   -1.5857 C   0  0  0  0  0  0  0  0  0  0  0  0
   52.9289   -4.8763   -1.4322 H   0  0  0  0  0  0  0  0  0  0  0  0
 25 26  1  0  0  0
 26  1  1  0  0  0
  1  2  1  0  0  0
  2  3  1  0  0  0
  3  4  1  0  0  0
  4  5  1  0  0  0
  4  6  1  0  0  0
  6  7  1  0  0  0
  6  8  1  0  0  0
  8  9  1  0  0  0
  3 13  1  0  0  0
 13 14  1  0  0  0
 14 15  2  0  0  0
 15 16  1  0  0  0
 16 17  2  0  0  0
 17 18  1  0  0  0
 17 19  1  0  0  0
 19 20  2  0  0  0
 20 21  1  0  0  0
 21 22  2  0  0  0
  8  1  1  0  0  0
 22 13  1  0  0  0
 22 16  1  0  0  0
 25 27  1  0  0  0
  5 10  1  0  0  0
  7 11  1  0  0  0
  9 12  1  0  0  0
 18 23  1  0  0  0
 18 24  1  0  0  0
M  END
> <minimizedAffinity>
-7.31860

> <CNNscore>
0.5469600558

> <CNNaffinity>
4.8271074295

> <CNN_VS>
2.6402349472

> <CNNaffinity_variance>
0.2547312379

$$$$
[H]OC([H])([H])[C@@]1([H])O[C@@]([H])(n2c([H])nc3c(N([H])[H])nc([H])nc32)[C@]([H])(O[H])[C@@]([H])(O[H])[C@]1([H])O[H]


 27 29  0  0  0  0  0  0  0  0999 V2000
   51.9332   -8.1965   -1.8024 C   0  0  0  0  0  0  0  0  0  0  0  0
   51.5765   -7.2716   -2.7707 O   0  0  0  0  0  0  0  0  0  0  0  0
   52.6544   -6.6705   -3.3851 C   0  0  0  0  0  0  0  0  0  0  0  0
   53.3871   -5.8574   -2.3585 C   0  0  0  0  0  0  0  0  0  0  0  0
   54.4481   -5.1354   -2.9140 O   0  0  0  0  0  0  0  0  0  0  0  0
   54.0398   -6.8783   -1.4159 C   0  0  0  0  0  0  0  0  0  0  0  0
   54.6661   -6.2092   -0.3498 O   0  0  0  0  0  0  0  0  0  0  0  0
   52.9634   -7.7295   -0.8441 C   0  0  0  0  0  0  0  0  0  0  0  0
   53.5809   -8.8611   -0.2629 O   0  0  0  0  0  0  0  0  0  0  0  0
   54.6047   -4.3461   -2.3365 H   0  0  0  0  0  0  0  0  0  0  0  0
   55.6303   -6.1484   -0.5345 H   0  0  0  0  0  0  0  0  0  0  0  0
   54.5624   -8.8095   -0.3144 H   0  0  0  0  0  0  0  0  0  0  0  0
   52.1807   -5.9135   -4.5141 N   0  0  0  0  0  0  0  0  0  0  0  0
   52.7506   -5.9328   -5.7116 C   0  0  0  0  0  0  0  0  0  0  0  0
   52.0599   -5.1186   -6.5292 N   0  0  0  0  0  0  0  0  0  0  0  0
   51.0448   -4.5751   -5.8569 C   0  0  0  0  0  0  0  0  0  0  0  0
   50.0280   -3.6822   -6.1831 C   0  0  0  0  0  0  0  0  0  0  0  0
   49.9503   -3.1667   -7.4914 N   0  0  0  0  0  0  0  0  0  0  0  0
   49.1582   -3.3567   -5.2054 N   0  0  0  0  0  0  0  0  0  0  0  0
   49.2572   -3.8618   -3.9738 C   0  0  0  0  0  0  0  0  0  0  0  0
   50.2272   -4.7229   -3.6356 N   0  0  0  0  0  0  0  0  0  0  0  0
   51.1189   -5.0779   -4.5770 C   0  0  0  0  0  0  0  0  0  0  0  0
   50.3269   -2.2322   -7.6977 H   0  0  0  0  0  0  0  0  0  0  0  0
   49.5168   -3.7270   -8.2374 H   0  0  0  0  0  0  0  0  0  0  0  0
   50.0237   -7.2665   -0.7432 O   0  0  0  0  0  0  0  0  0  0  0  0
   50.6505   -8.4649   -1.0029 C   0  0  0  0  0  0  0  0  0  0  0  0
   50.0360   -6.6472   -1.5145 H   0  0  0  0  0  0  0  0  0  0  0  0
 25 26  1  0  0  0
 26  1  1  0  0  0
  1  2  1  0  0  0
  2  3  1  0  0  0
  3  4  1  0  0  0
  4  5  1  0  0  0
  4  6  1  0  0  0
  6  7  1  0  0  0
  6  8  1  0  0  0
  8  9  1  0  0  0
  3 13  1  0  0  0
 13 14  1  0  0  0
 14 15  2  0  0  0
 15 16  1  0  0  0
 16 17  2  0  0  0
 17 18  1  0  0  0
 17 19  1  0  0  0
 19 20  2  0  0  0
 20 21  1  0  0  0
 21 22  2  0  0  0
  8  1  1  0  0  0
 22 13  1  0  0  0
 22 16  1  0  0  0
 25 27  1  0  0  0
  5 10  1  0  0  0
  7 11  1  0  0  0
  9 12  1  0  0  0
 18 23  1  0  0  0
 18 24  1  0  0  0
M  END
> <minimizedAffinity>
-7.30939

> <CNNscore>
0.5250431299

> <CNNaffinity>
4.7449774742

> <CNN_VS>
2.4913177490

> <CNNaffinity_variance>
0.3026147485

$$$$
[H]OC([H])([H])[C@@]1([H])O[C@@]([H])(n2c([H])nc3c(N([H])[H])nc([H])nc32)[C@]([H])(O[H])[C@@]([H])(O[H])[C@]1([H])O[H]


 27 29  0  0  0  0  0  0  0  0999 V2000
   53.6799   -6.7744   -3.6850 C   0  0  0  0  0  0  0  0  0  0  0  0
   54.2423   -6.0200   -4.7023 O   0  0  0  0  0  0  0  0  0  0  0  0
   55.3314   -6.6194   -5.2982 C   0  0  0  0  0  0  0  0  0  0  0  0
   56.4261   -6.7261   -4.2774 C   0  0  0  0  0  0  0  0  0  0  0  0
   57.6073   -7.2418   -4.8200 O   0  0  0  0  0  0  0  0  0  0  0  0
   55.9469   -7.7815   -3.2707 C   0  0  0  0  0  0  0  0  0  0  0  0
   56.8633   -7.8768   -2.2088 O   0  0  0  0  0  0  0  0  0  0  0  0
   54.6497   -7.3233   -2.7072 C   0  0  0  0  0  0  0  0  0  0  0  0
   54.0545   -8.4298   -2.0583 O   0  0  0  0  0  0  0  0  0  0  0  0
   58.3586   -6.9061   -4.2687 H   0  0  0  0  0  0  0  0  0  0  0  0
   57.4443   -8.6562   -2.3586 H   0  0  0  0  0  0  0  0  0  0  0  0
   54.6390   -9.2215   -2.0742 H   0  0  0  0  0  0  0  0  0  0  0  0
   55.6873   -5.8687   -6.4738 N   0  0  0  0  0  0  0  0  0  0  0  0
   56.9351   -5.6671   -6.8753 C   0  0  0  0  0  0  0  0  0  0  0  0
   56.9107   -4.9312   -8.0006 N   0  0  0  0  0  0  0  0  0  0  0  0
   55.6459   -4.6592   -8.3232 C   0  0  0  0  0  0  0  0  0  0  0  0
   55.0344   -3.9549   -9.3564 C   0  0  0  0  0  0  0  0  0  0  0  0
   55.8294   -3.3467  -10.3472 N   0  0  0  0  0  0  0  0  0  0  0  0
   53.6873   -3.8956   -9.3474 N   0  0  0  0  0  0  0  0  0  0  0  0
   52.9600   -4.4826   -8.3944 C   0  0  0  0  0  0  0  0  0  0  0  0
   53.5255   -5.1660   -7.3895 N   0  0  0  0  0  0  0  0  0  0  0  0
   54.8666   -5.2532   -7.3555 C   0  0  0  0  0  0  0  0  0  0  0  0
   56.0411   -2.3419  -10.2896 H   0  0  0  0  0  0  0  0  0  0  0  0
   56.1963   -3.9098  -11.1261 H   0  0  0  0  0  0  0  0  0  0  0  0
   51.7725   -6.5368   -2.2929 O   0  0  0  0  0  0  0  0  0  0  0  0
   52.7573   -5.8111   -2.9253 C   0  0  0  0  0  0  0  0  0  0  0  0
   52.1097   -7.3696   -1.8788 H   0  0  0  0  0  0  0  0  0  0  0  0
 25 26  1  0  0  0
 26  1  1  0  0  0
  1  2  1  0  0  0
  2  3  1  0  0  0
  3  4  1  0  0  0
  4  5  1  0  0  0
  4  6  1  0  0  0
  6  7  1  0  0  0
  6  8  1  0  0  0
  8  9  1  0  0  0
  3 13  1  0  0  0
 13 14  1  0  0  0
 14 15  2  0  0  0
 15 16  1  0  0  0
 16 17  2  0  0  0
 17 18  1  0  0  0
 17 19  1  0  0  0
 19 20  2  0  0  0
 20 21  1  0  0  0
 21 22  2  0  0  0
  8  1  1  0  0  0
 22 13  1  0  0  0
 22 16  1  0  0  0
 25 27  1  0  0  0
  5 10  1  0  0  0
  7 11  1  0  0  0
  9 12  1  0  0  0
 18 23  1  0  0  0
 18 24  1  0  0  0
M  END
> <minimizedAffinity>
-6.78458

> <CNNscore>
0.4680868983

> <CNNaffinity>
4.4955739975

> <CNN_VS>
2.1043193340

> <CNNaffinity_variance>
0.4629186690

$$$$
[H]OC([H])([H])[C@@]1([H])O[C@@]([H])(n2c([H])nc3c(N([H])[H])nc([H])nc32)[C@]([H])(O[H])[C@@]([H])(O[H])[C@]1([H])O[H]


 27 29  0  0  0  0  0  0  0  0999 V2000
   55.2920   -5.9792   -4.5870 C   0  0  0  0  0  0  0  0  0  0  0  0
   54.3811   -5.1143   -5.1722 O   0  0  0  0  0  0  0  0  0  0  0  0
   54.2699   -5.2690   -6.5377 C   0  0  0  0  0  0  0  0  0  0  0  0
   55.5815   -4.8919   -7.1616 C   0  0  0  0  0  0  0  0  0  0  0  0
   55.5337   -4.9312   -8.5587 O   0  0  0  0  0  0  0  0  0  0  0  0
   56.5624   -6.0016   -6.7574 C   0  0  0  0  0  0  0  0  0  0  0  0
   57.8550   -5.6815   -7.2082 O   0  0  0  0  0  0  0  0  0  0  0  0
   56.6041   -6.0594   -5.2725 C   0  0  0  0  0  0  0  0  0  0  0  0
   57.2241   -7.2783   -4.9126 O   0  0  0  0  0  0  0  0  0  0  0  0
   56.2210   -4.3033   -8.8971 H   0  0  0  0  0  0  0  0  0  0  0  0
   58.0352   -6.1787   -8.0376 H   0  0  0  0  0  0  0  0  0  0  0  0
   57.5327   -7.7791   -5.7016 H   0  0  0  0  0  0  0  0  0  0  0  0
   53.1479   -4.4956   -7.0014 N   0  0  0  0  0  0  0  0  0  0  0  0
   53.1620   -3.7545   -8.1012 C   0  0  0  0  0  0  0  0  0  0  0  0
   51.9592   -3.1691   -8.2401 N   0  0  0  0  0  0  0  0  0  0  0  0
   51.1708   -3.5342   -7.2287 C   0  0  0  0  0  0  0  0  0  0  0  0
   49.8587   -3.2463   -6.8639 C   0  0  0  0  0  0  0  0  0  0  0  0
   49.0879   -2.3851   -7.6686 N   0  0  0  0  0  0  0  0  0  0  0  0
   49.3932   -3.8218   -5.7368 N   0  0  0  0  0  0  0  0  0  0  0  0
   50.1481   -4.6344   -4.9940 C   0  0  0  0  0  0  0  0  0  0  0  0
   51.4138   -4.9267   -5.3243 N   0  0  0  0  0  0  0  0  0  0  0  0
   51.9229   -4.3765   -6.4403 C   0  0  0  0  0  0  0  0  0  0  0  0
   48.9823   -1.3961   -7.4068 H   0  0  0  0  0  0  0  0  0  0  0  0
   48.6323   -2.7482   -8.5166 H   0  0  0  0  0  0  0  0  0  0  0  0
   56.0630   -4.1469   -3.2903 O   0  0  0  0  0  0  0  0  0  0  0  0
   55.5423   -5.4171   -3.1807 C   0  0  0  0  0  0  0  0  0  0  0  0
   55.6261   -3.6082   -3.9958 H   0  0  0  0  0  0  0  0  0  0  0  0
 25 26  1  0  0  0
 26  1  1  0  0  0
  1  2  1  0  0  0
  2  3  1  0  0  0
  3  4  1  0  0  0
  4  5  1  0  0  0
  4  6  1  0  0  0
  6  7  1  0  0  0
  6  8  1  0  0  0
  8  9  1  0  0  0
  3 13  1  0  0  0
 13 14  1  0  0  0
 14 15  2  0  0  0
 15 16  1  0  0  0
 16 17  2  0  0  0
 17 18  1  0  0  0
 17 19  1  0  0  0
 19 20  2  0  0  0
 20 21  1  0  0  0
 21 22  2  0  0  0
  8  1  1  0  0  0
 22 13  1  0  0  0
 22 16  1  0  0  0
 25 27  1  0  0  0
  5 10  1  0  0  0
  7 11  1  0  0  0
  9 12  1  0  0  0
 18 23  1  0  0  0
 18 24  1  0  0  0
M  END
> <minimizedAffinity>
-7.17288

> <CNNscore>
0.4362450540

> <CNNaffinity>
4.9185113907

> <CNN_VS>
2.1456763744

> <CNNaffinity_variance>
0.2015549839

$$$$
[H]OC([H])([H])[C@@]1([H])O[C@@]([H])(n2c([H])nc3c(N([H])[H])nc(-c4c([H])c([H])c([H])c([H])c4[H])nc32)[C@]([H])(O[H])[C@]1([H])O[H]


 30 33  0  0  0  0  0  0  0  0999 V2000
   51.1536   -5.3923   -4.6095 N   0  0  0  0  0  0  0  0  0  0  0  0
   49.9469   -4.9000   -4.3044 C   0  0  0  0  0  0  0  0  0  0  0  0
   49.6443   -3.9755   -5.2381 N   0  0  0  0  0  0  0  0  0  0  0  0
   50.6354   -3.8818   -6.1167 C   0  0  0  0  0  0  0  0  0  0  0  0
   50.8096   -3.0906   -7.2483 C   0  0  0  0  0  0  0  0  0  0  0  0
   49.8010   -2.1776   -7.6258 N   0  0  0  0  0  0  0  0  0  0  0  0
   51.9564   -3.2474   -7.9304 N   0  0  0  0  0  0  0  0  0  0  0  0
   52.9145   -4.1163   -7.5699 C   0  0  0  0  0  0  0  0  0  0  0  0
   52.7070   -4.8629   -6.4691 N   0  0  0  0  0  0  0  0  0  0  0  0
   51.6066   -4.7852   -5.7226 C   0  0  0  0  0  0  0  0  0  0  0  0
   48.9354   -2.5430   -8.0602 H   0  0  0  0  0  0  0  0  0  0  0  0
   49.9440   -1.1647   -7.4626 H   0  0  0  0  0  0  0  0  0  0  0  0
   51.9666   -7.7398   -2.1329 C   0  0  0  0  0  0  0  0  0  0  0  0
   51.1050   -7.0534   -2.9476 O   0  0  0  0  0  0  0  0  0  0  0  0
   51.8911   -6.4024   -3.9013 C   0  0  0  0  0  0  0  0  0  0  0  0
   52.9832   -5.8243   -3.0276 C   0  0  0  0  0  0  0  0  0  0  0  0
   54.0996   -5.4465   -3.7362 O   0  0  0  0  0  0  0  0  0  0  0  0
   53.3218   -7.0841   -2.2225 C   0  0  0  0  0  0  0  0  0  0  0  0
   54.1377   -7.8629   -3.0162 O   0  0  0  0  0  0  0  0  0  0  0  0
   54.1166   -4.4853   -3.9635 H   0  0  0  0  0  0  0  0  0  0  0  0
   54.2150   -8.7989   -2.7354 H   0  0  0  0  0  0  0  0  0  0  0  0
   50.0544   -7.3295   -0.7178 O   0  0  0  0  0  0  0  0  0  0  0  0
   51.4154   -7.6330   -0.7050 C   0  0  0  0  0  0  0  0  0  0  0  0
   49.7083   -7.2620   -1.6342 H   0  0  0  0  0  0  0  0  0  0  0  0
   54.1526   -4.2497   -8.3517 C   0  0  0  0  0  0  0  0  0  0  0  0
   54.2251   -3.9450   -9.6742 C   0  0  0  0  0  0  0  0  0  0  0  0
   55.4080   -4.0856  -10.3678 C   0  0  0  0  0  0  0  0  0  0  0  0
   56.5490   -4.5375   -9.7447 C   0  0  0  0  0  0  0  0  0  0  0  0
   56.4746   -4.8468   -8.4019 C   0  0  0  0  0  0  0  0  0  0  0  0
   55.2840   -4.7027   -7.7145 C   0  0  0  0  0  0  0  0  0  0  0  0
 22 23  1  0  0  0
 23 13  1  0  0  0
 13 14  1  0  0  0
 14 15  1  0  0  0
 15 16  1  0  0  0
 16 17  1  0  0  0
 16 18  1  0  0  0
 18 19  1  0  0  0
 15  1  1  0  0  0
  1  2  1  0  0  0
  2  3  2  0  0  0
  3  4  1  0  0  0
  4  5  2  0  0  0
  5  6  1  0  0  0
  5  7  1  0  0  0
  7  8  2  0  0  0
  8  9  1  0  0  0
  9 10  2  0  0  0
  8 25  1  0  0  0
 25 26  2  0  0  0
 26 27  1  0  0  0
 27 28  2  0  0  0
 28 29  1  0  0  0
 29 30  2  0  0  0
 18 13  1  0  0  0
 10  1  1  0  0  0
 30 25  1  0  0  0
 10  4  1  0  0  0
 22 24  1  0  0  0
 17 20  1  0  0  0
 19 21  1  0  0  0
  6 11  1  0  0  0
  6 12  1  0  0  0
M  END
> <minimizedAffinity>
-9.81684

> <CNNscore>
0.8415715098

> <CNNaffinity>
6.2986302376

> <CNN_VS>
5.3007478714

> <CNNaffinity_variance>
0.1311880499

$$$$
[H]OC([H])([H])[C@@]1([H])O[C@@]([H])(n2c([H])nc3c(N([H])[H])nc(-c4c([H])c([H])c([H])c([H])c4[H])nc32)[C@]([H])(O[H])[C@]1([H])O[H]


 30 33  0  0  0  0  0  0  0  0999 V2000
   51.9047   -5.2700   -5.3642 N   0  0  0  0  0  0  0  0  0  0  0  0
   50.7070   -4.6752   -5.3088 C   0  0  0  0  0  0  0  0  0  0  0  0
   50.6471   -3.8001   -6.3329 N   0  0  0  0  0  0  0  0  0  0  0  0
   51.7804   -3.8373   -7.0237 C   0  0  0  0  0  0  0  0  0  0  0  0
   52.2123   -3.1417   -8.1491 C   0  0  0  0  0  0  0  0  0  0  0  0
   51.3617   -2.1901   -8.7527 N   0  0  0  0  0  0  0  0  0  0  0  0
   53.4441   -3.4252   -8.6046 N   0  0  0  0  0  0  0  0  0  0  0  0
   54.2516   -4.3305   -8.0293 C   0  0  0  0  0  0  0  0  0  0  0  0
   53.7960   -4.9815   -6.9426 N   0  0  0  0  0  0  0  0  0  0  0  0
   52.5922   -4.7756   -6.4110 C   0  0  0  0  0  0  0  0  0  0  0  0
   50.5586   -2.5246   -9.3135 H   0  0  0  0  0  0  0  0  0  0  0  0
   51.5552   -1.1806   -8.6247 H   0  0  0  0  0  0  0  0  0  0  0  0
   52.1564   -7.3795   -2.5729 C   0  0  0  0  0  0  0  0  0  0  0  0
   51.4752   -6.6875   -3.5395 O   0  0  0  0  0  0  0  0  0  0  0  0
   52.4237   -6.2762   -4.4788 C   0  0  0  0  0  0  0  0  0  0  0  0
   53.5163   -5.7506   -3.5730 C   0  0  0  0  0  0  0  0  0  0  0  0
   54.7299   -5.6229   -4.2072 O   0  0  0  0  0  0  0  0  0  0  0  0
   53.5971   -6.9346   -2.6027 C   0  0  0  0  0  0  0  0  0  0  0  0
   54.3486   -7.9121   -3.2208 O   0  0  0  0  0  0  0  0  0  0  0  0
   54.9085   -4.7094   -4.5380 H   0  0  0  0  0  0  0  0  0  0  0  0
   54.2624   -8.8073   -2.8307 H   0  0  0  0  0  0  0  0  0  0  0  0
   50.1709   -6.6838   -1.3891 O   0  0  0  0  0  0  0  0  0  0  0  0
   51.5146   -7.0197   -1.2265 C   0  0  0  0  0  0  0  0  0  0  0  0
   49.8907   -6.7607   -2.3271 H   0  0  0  0  0  0  0  0  0  0  0  0
   55.5922   -4.6039   -8.5677 C   0  0  0  0  0  0  0  0  0  0  0  0
   55.9116   -4.4221   -9.8762 C   0  0  0  0  0  0  0  0  0  0  0  0
   57.1824   -4.6917  -10.3372 C   0  0  0  0  0  0  0  0  0  0  0  0
   58.1644   -5.1518   -9.4897 C   0  0  0  0  0  0  0  0  0  0  0  0
   57.8392   -5.3363   -8.1613 C   0  0  0  0  0  0  0  0  0  0  0  0
   56.5622   -5.0633   -7.7079 C   0  0  0  0  0  0  0  0  0  0  0  0
 22 23  1  0  0  0
 23 13  1  0  0  0
 13 14  1  0  0  0
 14 15  1  0  0  0
 15 16  1  0  0  0
 16 17  1  0  0  0
 16 18  1  0  0  0
 18 19  1  0  0  0
 15  1  1  0  0  0
  1  2  1  0  0  0
  2  3  2  0  0  0
  3  4  1  0  0  0
  4  5  2  0  0  0
  5  6  1  0  0  0
  5  7  1  0  0  0
  7  8  2  0  0  0
  8  9  1  0  0  0
  9 10  2  0  0  0
  8 25  1  0  0  0
 25 26  2  0  0  0
 26 27  1  0  0  0
 27 28  2  0  0  0
 28 29  1  0  0  0
 29 30  2  0  0  0
 18 13  1  0  0  0
 10  1  1  0  0  0
 30 25  1  0  0  0
 10  4  1  0  0  0
 22 24  1  0  0  0
 17 20  1  0  0  0
 19 21  1  0  0  0
  6 11  1  0  0  0
  6 12  1  0  0  0
M  END
> <minimizedAffinity>
-9.63768

> <CNNscore>
0.7336375117

> <CNNaffinity>
5.9507989883

> <CNN_VS>
4.3657293320

> <CNNaffinity_variance>
0.1179703251

$$$$
[H]OC([H])([H])[C@@]1([H])O[C@@]([H])(n2c([H])nc3c(N([H])[H])nc(-c4c([H])c([H])c([H])c([H])c4[H])nc32)[C@]([H])(O[H])[C@]1([H])O[H]


 30 33  0  0  0  0  0  0  0  0999 V2000
   51.5113   -5.4603   -3.9563 N   0  0  0  0  0  0  0  0  0  0  0  0
   50.2158   -5.1863   -3.7613 C   0  0  0  0  0  0  0  0  0  0  0  0
   49.7628   -4.5792   -4.8769 N   0  0  0  0  0  0  0  0  0  0  0  0
   50.7474   -4.4696   -5.7610 C   0  0  0  0  0  0  0  0  0  0  0  0
   50.7966   -3.9297   -7.0428 C   0  0  0  0  0  0  0  0  0  0  0  0
   49.6336   -3.3637   -7.6089 N   0  0  0  0  0  0  0  0  0  0  0  0
   51.9782   -3.9811   -7.6803 N   0  0  0  0  0  0  0  0  0  0  0  0
   53.0832   -4.5198   -7.1404 C   0  0  0  0  0  0  0  0  0  0  0  0
   52.9932   -5.0313   -5.8984 N   0  0  0  0  0  0  0  0  0  0  0  0
   51.8711   -5.0309   -5.1807 C   0  0  0  0  0  0  0  0  0  0  0  0
   48.8846   -3.9948   -7.9438 H   0  0  0  0  0  0  0  0  0  0  0  0
   49.5508   -2.3335   -7.6788 H   0  0  0  0  0  0  0  0  0  0  0  0
   54.2509   -7.3303   -2.8153 C   0  0  0  0  0  0  0  0  0  0  0  0
   53.6190   -6.4571   -3.6610 O   0  0  0  0  0  0  0  0  0  0  0  0
   52.4163   -6.1043   -3.0443 C   0  0  0  0  0  0  0  0  0  0  0  0
   51.9198   -7.4586   -2.5866 C   0  0  0  0  0  0  0  0  0  0  0  0
   50.9405   -7.3788   -1.6244 O   0  0  0  0  0  0  0  0  0  0  0  0
   53.2086   -7.9631   -1.9277 C   0  0  0  0  0  0  0  0  0  0  0  0
   53.2785   -7.3805   -0.6796 O   0  0  0  0  0  0  0  0  0  0  0  0
   50.0240   -7.4427   -1.9873 H   0  0  0  0  0  0  0  0  0  0  0  0
   54.1643   -7.4075   -0.2605 H   0  0  0  0  0  0  0  0  0  0  0  0
   55.1569   -7.9089   -4.9767 O   0  0  0  0  0  0  0  0  0  0  0  0
   54.9242   -8.3954   -3.6907 C   0  0  0  0  0  0  0  0  0  0  0  0
   54.8639   -6.9761   -5.0682 H   0  0  0  0  0  0  0  0  0  0  0  0
   54.3531   -4.5512   -7.8808 C   0  0  0  0  0  0  0  0  0  0  0  0
   55.5071   -5.0277   -7.3440 C   0  0  0  0  0  0  0  0  0  0  0  0
   56.6753   -5.0379   -8.0756 C   0  0  0  0  0  0  0  0  0  0  0  0
   56.7094   -4.5672   -9.3686 C   0  0  0  0  0  0  0  0  0  0  0  0
   55.5373   -4.0834   -9.9129 C   0  0  0  0  0  0  0  0  0  0  0  0
   54.3705   -4.0772   -9.1716 C   0  0  0  0  0  0  0  0  0  0  0  0
 22 23  1  0  0  0
 23 13  1  0  0  0
 13 14  1  0  0  0
 14 15  1  0  0  0
 15 16  1  0  0  0
 16 17  1  0  0  0
 16 18  1  0  0  0
 18 19  1  0  0  0
 15  1  1  0  0  0
  1  2  1  0  0  0
  2  3  2  0  0  0
  3  4  1  0  0  0
  4  5  2  0  0  0
  5  6  1  0  0  0
  5  7  1  0  0  0
  7  8  2  0  0  0
  8  9  1  0  0  0
  9 10  2  0  0  0
  8 25  1  0  0  0
 25 26  2  0  0  0
 26 27  1  0  0  0
 27 28  2  0  0  0
 28 29  1  0  0  0
 29 30  2  0  0  0
 18 13  1  0  0  0
 10  1  1  0  0  0
 30 25  1  0  0  0
 10  4  1  0  0  0
 22 24  1  0  0  0
 17 20  1  0  0  0
 19 21  1  0  0  0
  6 11  1  0  0  0
  6 12  1  0  0  0
M  END
> <minimizedAffinity>
-8.75476

> <CNNscore>
0.6948868036

> <CNNaffinity>
5.9153718948

> <CNN_VS>
4.1105136871

> <CNNaffinity_variance>
0.1353783906

$$$$
[H]OC([H])([H])[C@@]1([H])O[C@@]([H])(n2c([H])nc3c(N([H])[H])nc(-c4c([H])c([H])c([H])c([H])c4[H])nc32)[C@]([H])(O[H])[C@]1([H])O[H]


 30 33  0  0  0  0  0  0  0  0999 V2000
   53.5858   -3.9119   -8.6334 N   0  0  0  0  0  0  0  0  0  0  0  0
   53.1586   -3.0671   -9.5796 C   0  0  0  0  0  0  0  0  0  0  0  0
   51.9475   -2.6155   -9.1957 N   0  0  0  0  0  0  0  0  0  0  0  0
   51.6120   -3.1603   -8.0323 C   0  0  0  0  0  0  0  0  0  0  0  0
   50.4852   -3.0241   -7.2268 C   0  0  0  0  0  0  0  0  0  0  0  0
   49.4370   -2.1679   -7.6287 N   0  0  0  0  0  0  0  0  0  0  0  0
   50.4625   -3.7340   -6.0863 N   0  0  0  0  0  0  0  0  0  0  0  0
   51.4603   -4.5478   -5.7056 C   0  0  0  0  0  0  0  0  0  0  0  0
   52.5325   -4.6513   -6.5131 N   0  0  0  0  0  0  0  0  0  0  0  0
   52.6547   -3.9920   -7.6640 C   0  0  0  0  0  0  0  0  0  0  0  0
   49.5714   -1.1446   -7.5495 H   0  0  0  0  0  0  0  0  0  0  0  0
   48.5576   -2.5761   -7.9933 H   0  0  0  0  0  0  0  0  0  0  0  0
   56.2753   -5.7756   -7.3694 C   0  0  0  0  0  0  0  0  0  0  0  0
   54.9599   -5.3989   -7.4401 O   0  0  0  0  0  0  0  0  0  0  0  0
   54.8243   -4.6405   -8.6053 C   0  0  0  0  0  0  0  0  0  0  0  0
   56.0327   -3.7354   -8.5016 C   0  0  0  0  0  0  0  0  0  0  0  0
   56.3637   -3.1362   -9.6943 O   0  0  0  0  0  0  0  0  0  0  0  0
   57.0884   -4.8004   -8.1832 C   0  0  0  0  0  0  0  0  0  0  0  0
   57.4304   -5.3992   -9.3777 O   0  0  0  0  0  0  0  0  0  0  0  0
   55.9993   -2.2233   -9.7923 H   0  0  0  0  0  0  0  0  0  0  0  0
   57.8923   -6.2594   -9.2907 H   0  0  0  0  0  0  0  0  0  0  0  0
   56.7339   -6.9830   -5.3300 O   0  0  0  0  0  0  0  0  0  0  0  0
   56.6829   -5.7077   -5.8918 C   0  0  0  0  0  0  0  0  0  0  0  0
   56.5188   -7.6771   -5.9904 H   0  0  0  0  0  0  0  0  0  0  0  0
   51.3863   -5.3033   -4.4464 C   0  0  0  0  0  0  0  0  0  0  0  0
   50.3601   -5.1684   -3.5657 C   0  0  0  0  0  0  0  0  0  0  0  0
   50.3321   -5.8977   -2.3964 C   0  0  0  0  0  0  0  0  0  0  0  0
   51.3393   -6.7826   -2.0852 C   0  0  0  0  0  0  0  0  0  0  0  0
   52.3811   -6.9189   -2.9799 C   0  0  0  0  0  0  0  0  0  0  0  0
   52.4007   -6.1834   -4.1501 C   0  0  0  0  0  0  0  0  0  0  0  0
 22 23  1  0  0  0
 23 13  1  0  0  0
 13 14  1  0  0  0
 14 15  1  0  0  0
 15 16  1  0  0  0
 16 17  1  0  0  0
 16 18  1  0  0  0
 18 19  1  0  0  0
 15  1  1  0  0  0
  1  2  1  0  0  0
  2  3  2  0  0  0
  3  4  1  0  0  0
  4  5  2  0  0  0
  5  6  1  0  0  0
  5  7  1  0  0  0
  7  8  2  0  0  0
  8  9  1  0  0  0
  9 10  2  0  0  0
  8 25  1  0  0  0
 25 26  2  0  0  0
 26 27  1  0  0  0
 27 28  2  0  0  0
 28 29  1  0  0  0
 29 30  2  0  0  0
 18 13  1  0  0  0
 10  1  1  0  0  0
 30 25  1  0  0  0
 10  4  1  0  0  0
 22 24  1  0  0  0
 17 20  1  0  0  0
 19 21  1  0  0  0
  6 11  1  0  0  0
  6 12  1  0  0  0
M  END
> <minimizedAffinity>
-8.57457

> <CNNscore>
0.6620731950

> <CNNaffinity>
5.9626855850

> <CNN_VS>
3.9477343559

> <CNNaffinity_variance>
0.3270037770

$$$$
[H]OC([H])([H])[C@@]1([H])O[C@@]([H])(n2c([H])nc3c(N([H])[H])nc(-c4c([H])c([H])c([H])c([H])c4[H])nc32)[C@]([H])(O[H])[C@]1([H])O[H]


 30 33  0  0  0  0  0  0  0  0999 V2000
   56.5213   -5.4538   -6.8620 N   0  0  0  0  0  0  0  0  0  0  0  0
   57.4819   -5.4466   -7.7940 C   0  0  0  0  0  0  0  0  0  0  0  0
   56.9598   -4.8833   -8.9024 N   0  0  0  0  0  0  0  0  0  0  0  0
   55.6965   -4.5402   -8.6805 C   0  0  0  0  0  0  0  0  0  0  0  0
   54.7364   -3.9369   -9.4875 C   0  0  0  0  0  0  0  0  0  0  0  0
   55.0616   -3.5793  -10.8140 N   0  0  0  0  0  0  0  0  0  0  0  0
   53.5271   -3.7258   -8.9412 N   0  0  0  0  0  0  0  0  0  0  0  0
   53.2197   -4.0664   -7.6794 C   0  0  0  0  0  0  0  0  0  0  0  0
   54.1767   -4.6478   -6.9321 N   0  0  0  0  0  0  0  0  0  0  0  0
   55.4064   -4.9015   -7.3767 C   0  0  0  0  0  0  0  0  0  0  0  0
   55.6623   -2.7517  -10.9739 H   0  0  0  0  0  0  0  0  0  0  0  0
   54.6956   -4.1477  -11.5988 H   0  0  0  0  0  0  0  0  0  0  0  0
   55.9020   -7.4677   -4.0575 C   0  0  0  0  0  0  0  0  0  0  0  0
   56.0586   -7.2333   -5.3983 O   0  0  0  0  0  0  0  0  0  0  0  0
   56.6099   -5.9554   -5.5181 C   0  0  0  0  0  0  0  0  0  0  0  0
   55.7485   -5.1784   -4.5461 C   0  0  0  0  0  0  0  0  0  0  0  0
   56.3005   -3.9739   -4.1776 O   0  0  0  0  0  0  0  0  0  0  0  0
   55.8311   -6.1364   -3.3523 C   0  0  0  0  0  0  0  0  0  0  0  0
   57.0391   -5.9016   -2.7294 O   0  0  0  0  0  0  0  0  0  0  0  0
   55.9633   -3.2079   -4.7023 H   0  0  0  0  0  0  0  0  0  0  0  0
   57.3335   -6.6103   -2.1194 H   0  0  0  0  0  0  0  0  0  0  0  0
   54.3805   -8.5844   -2.5524 O   0  0  0  0  0  0  0  0  0  0  0  0
   54.5832   -8.2330   -3.8865 C   0  0  0  0  0  0  0  0  0  0  0  0
   55.1082   -8.2590   -1.9789 H   0  0  0  0  0  0  0  0  0  0  0  0
   51.8800   -3.8133   -7.1289 C   0  0  0  0  0  0  0  0  0  0  0  0
   51.3225   -4.5887   -6.1619 C   0  0  0  0  0  0  0  0  0  0  0  0
   50.0625   -4.3139   -5.6750 C   0  0  0  0  0  0  0  0  0  0  0  0
   49.3321   -3.2490   -6.1512 C   0  0  0  0  0  0  0  0  0  0  0  0
   49.8988   -2.4622   -7.1331 C   0  0  0  0  0  0  0  0  0  0  0  0
   51.1629   -2.7454   -7.6154 C   0  0  0  0  0  0  0  0  0  0  0  0
 22 23  1  0  0  0
 23 13  1  0  0  0
 13 14  1  0  0  0
 14 15  1  0  0  0
 15 16  1  0  0  0
 16 17  1  0  0  0
 16 18  1  0  0  0
 18 19  1  0  0  0
 15  1  1  0  0  0
  1  2  1  0  0  0
  2  3  2  0  0  0
  3  4  1  0  0  0
  4  5  2  0  0  0
  5  6  1  0  0  0
  5  7  1  0  0  0
  7  8  2  0  0  0
  8  9  1  0  0  0
  9 10  2  0  0  0
  8 25  1  0  0  0
 25 26  2  0  0  0
 26 27  1  0  0  0
 27 28  2  0  0  0
 28 29  1  0  0  0
 29 30  2  0  0  0
 18 13  1  0  0  0
 10  1  1  0  0  0
 30 25  1  0  0  0
 10  4  1  0  0  0
 22 24  1  0  0  0
 17 20  1  0  0  0
 19 21  1  0  0  0
  6 11  1  0  0  0
  6 12  1  0  0  0
M  END
> <minimizedAffinity>
-9.56513

> <CNNscore>
0.6542633176

> <CNNaffinity>
5.7533364296

> <CNN_VS>
3.7641968727

> <CNNaffinity_variance>
0.0915155709

$$$$
[H]OC([H])([H])[C@@]1([H])O[C@@]([H])(n2c([H])nc3c(N([H])[H])nc(-c4c([H])c([H])c([H])c([H])c4[H])nc32)[C@]([H])(O[H])[C@]1([H])O[H]


 30 33  0  0  0  0  0  0  0  0999 V2000
   53.5223   -5.5588   -6.0773 N   0  0  0  0  0  0  0  0  0  0  0  0
   52.3072   -5.1560   -5.6865 C   0  0  0  0  0  0  0  0  0  0  0  0
   51.8479   -4.3026   -6.6239 N   0  0  0  0  0  0  0  0  0  0  0  0
   52.7499   -4.1656   -7.5886 C   0  0  0  0  0  0  0  0  0  0  0  0
   52.7589   -3.4137   -8.7598 C   0  0  0  0  0  0  0  0  0  0  0  0
   51.6464   -2.6060   -9.0814 N   0  0  0  0  0  0  0  0  0  0  0  0
   53.8538   -3.5044   -9.5332 N   0  0  0  0  0  0  0  0  0  0  0  0
   54.9108   -4.2731   -9.2257 C   0  0  0  0  0  0  0  0  0  0  0  0
   54.8622   -4.9847   -8.0840 N   0  0  0  0  0  0  0  0  0  0  0  0
   53.8257   -4.9661   -7.2476 C   0  0  0  0  0  0  0  0  0  0  0  0
   50.7826   -3.0615   -9.4246 H   0  0  0  0  0  0  0  0  0  0  0  0
   51.7138   -1.5785   -8.9692 H   0  0  0  0  0  0  0  0  0  0  0  0
   54.7162   -7.7619   -3.6226 C   0  0  0  0  0  0  0  0  0  0  0  0
   53.7430   -7.1867   -4.3966 O   0  0  0  0  0  0  0  0  0  0  0  0
   54.4018   -6.4711   -5.3992 C   0  0  0  0  0  0  0  0  0  0  0  0
   55.4696   -5.7636   -4.5931 C   0  0  0  0  0  0  0  0  0  0  0  0
   56.4990   -5.2797   -5.3660 O   0  0  0  0  0  0  0  0  0  0  0  0
   55.9854   -6.9655   -3.7936 C   0  0  0  0  0  0  0  0  0  0  0  0
   56.8378   -7.6652   -4.6219 O   0  0  0  0  0  0  0  0  0  0  0  0
   56.3994   -4.3264   -5.6048 H   0  0  0  0  0  0  0  0  0  0  0  0
   57.0312   -8.5825   -4.3352 H   0  0  0  0  0  0  0  0  0  0  0  0
   52.8625   -7.4425   -2.1096 O   0  0  0  0  0  0  0  0  0  0  0  0
   54.2335   -7.6907   -2.1679 C   0  0  0  0  0  0  0  0  0  0  0  0
   52.4684   -7.3806   -3.0069 H   0  0  0  0  0  0  0  0  0  0  0  0
   56.0858   -4.3372  -10.1072 C   0  0  0  0  0  0  0  0  0  0  0  0
   57.2789   -4.8512   -9.7079 C   0  0  0  0  0  0  0  0  0  0  0  0
   58.3546   -4.8912  -10.5689 C   0  0  0  0  0  0  0  0  0  0  0  0
   58.2545   -4.4134  -11.8557 C   0  0  0  0  0  0  0  0  0  0  0  0
   57.0428   -3.8915  -12.2604 C   0  0  0  0  0  0  0  0  0  0  0  0
   55.9694   -3.8555  -11.3900 C   0  0  0  0  0  0  0  0  0  0  0  0
 22 23  1  0  0  0
 23 13  1  0  0  0
 13 14  1  0  0  0
 14 15  1  0  0  0
 15 16  1  0  0  0
 16 17  1  0  0  0
 16 18  1  0  0  0
 18 19  1  0  0  0
 15  1  1  0  0  0
  1  2  1  0  0  0
  2  3  2  0  0  0
  3  4  1  0  0  0
  4  5  2  0  0  0
  5  6  1  0  0  0
  5  7  1  0  0  0
  7  8  2  0  0  0
  8  9  1  0  0  0
  9 10  2  0  0  0
  8 25  1  0  0  0
 25 26  2  0  0  0
 26 27  1  0  0  0
 27 28  2  0  0  0
 28 29  1  0  0  0
 29 30  2  0  0  0
 18 13  1  0  0  0
 10  1  1  0  0  0
 30 25  1  0  0  0
 10  4  1  0  0  0
 22 24  1  0  0  0
 17 20  1  0  0  0
 19 21  1  0  0  0
  6 11  1  0  0  0
  6 12  1  0  0  0
M  END
> <minimizedAffinity>
-8.46297

> <CNNscore>
0.5868499875

> <CNNaffinity>
5.5890617371

> <CNN_VS>
3.2799408436

> <CNNaffinity_variance>
0.0835675448

$$$$
[H]OC([H])([H])[C@@]1([H])O[C@@]([H])(n2c([H])nc3c(N([H])[H])nc(-c4c([H])c([H])c([H])c([H])c4[H])nc32)[C@]([H])(O[H])[C@]1([H])O[H]


 30 33  0  0  0  0  0  0  0  0999 V2000
   53.7782   -3.5388   -8.3468 N   0  0  0  0  0  0  0  0  0  0  0  0
   53.2675   -2.8154   -9.3505 C   0  0  0  0  0  0  0  0  0  0  0  0
   51.9507   -2.6624   -9.1037 N   0  0  0  0  0  0  0  0  0  0  0  0
   51.6313   -3.2743   -7.9694 C   0  0  0  0  0  0  0  0  0  0  0  0
   50.4254   -3.4093   -7.2879 C   0  0  0  0  0  0  0  0  0  0  0  0
   49.2543   -2.8225   -7.8147 N   0  0  0  0  0  0  0  0  0  0  0  0
   50.4493   -4.1079   -6.1404 N   0  0  0  0  0  0  0  0  0  0  0  0
   51.5640   -4.6653   -5.6410 C   0  0  0  0  0  0  0  0  0  0  0  0
   52.7097   -4.5114   -6.3309 N   0  0  0  0  0  0  0  0  0  0  0  0
   52.7949   -3.8386   -7.4772 C   0  0  0  0  0  0  0  0  0  0  0  0
   49.1362   -1.7965   -7.7445 H   0  0  0  0  0  0  0  0  0  0  0  0
   48.5384   -3.4249   -8.2591 H   0  0  0  0  0  0  0  0  0  0  0  0
   57.0920   -4.3574   -9.1552 C   0  0  0  0  0  0  0  0  0  0  0  0
   55.9304   -3.6427   -9.2854 O   0  0  0  0  0  0  0  0  0  0  0  0
   55.1429   -3.9558   -8.1750 C   0  0  0  0  0  0  0  0  0  0  0  0
   55.2931   -5.4611   -8.1311 C   0  0  0  0  0  0  0  0  0  0  0  0
   54.9302   -6.0059   -6.9216 O   0  0  0  0  0  0  0  0  0  0  0  0
   56.8182   -5.5418   -8.2626 C   0  0  0  0  0  0  0  0  0  0  0  0
   57.3450   -5.2851   -7.0140 O   0  0  0  0  0  0  0  0  0  0  0  0
   54.0035   -6.3474   -6.9044 H   0  0  0  0  0  0  0  0  0  0  0  0
   58.2965   -5.0496   -7.0080 H   0  0  0  0  0  0  0  0  0  0  0  0
   58.6494   -5.6010  -10.5174 O   0  0  0  0  0  0  0  0  0  0  0  0
   57.4891   -4.8287  -10.5603 C   0  0  0  0  0  0  0  0  0  0  0  0
   58.9765   -5.7100   -9.5979 H   0  0  0  0  0  0  0  0  0  0  0  0
   51.5365   -5.4207   -4.3798 C   0  0  0  0  0  0  0  0  0  0  0  0
   50.4867   -5.3770   -3.5178 C   0  0  0  0  0  0  0  0  0  0  0  0
   50.5042   -6.1025   -2.3458 C   0  0  0  0  0  0  0  0  0  0  0  0
   51.5819   -6.8912   -2.0130 C   0  0  0  0  0  0  0  0  0  0  0  0
   52.6476   -6.9349   -2.8887 C   0  0  0  0  0  0  0  0  0  0  0  0
   52.6211   -6.2041   -4.0617 C   0  0  0  0  0  0  0  0  0  0  0  0
 22 23  1  0  0  0
 23 13  1  0  0  0
 13 14  1  0  0  0
 14 15  1  0  0  0
 15 16  1  0  0  0
 16 17  1  0  0  0
 16 18  1  0  0  0
 18 19  1  0  0  0
 15  1  1  0  0  0
  1  2  1  0  0  0
  2  3  2  0  0  0
  3  4  1  0  0  0
  4  5  2  0  0  0
  5  6  1  0  0  0
  5  7  1  0  0  0
  7  8  2  0  0  0
  8  9  1  0  0  0
  9 10  2  0  0  0
  8 25  1  0  0  0
 25 26  2  0  0  0
 26 27  1  0  0  0
 27 28  2  0  0  0
 28 29  1  0  0  0
 29 30  2  0  0  0
 18 13  1  0  0  0
 10  1  1  0  0  0
 30 25  1  0  0  0
 10  4  1  0  0  0
 22 24  1  0  0  0
 17 20  1  0  0  0
 19 21  1  0  0  0
  6 11  1  0  0  0
  6 12  1  0  0  0
M  END
> <minimizedAffinity>
-7.83661

> <CNNscore>
0.4973096848

> <CNNaffinity>
5.9555768967

> <CNN_VS>
2.9617660046

> <CNNaffinity_variance>
0.1441534460

$$$$
[H]OC([H])([H])[C@@]1([H])O[C@@]([H])(n2c([H])nc3c(N([H])[H])nc(-c4c([H])c([H])c([H])c([H])c4[H])nc32)[C@]([H])(O[H])[C@]1([H])O[H]


 30 33  0  0  0  0  0  0  0  0999 V2000
   59.5388   -5.9348   -9.3059 N   0  0  0  0  0  0  0  0  0  0  0  0
   59.1934   -5.8612   -8.0149 C   0  0  0  0  0  0  0  0  0  0  0  0
   58.0049   -5.2271   -7.9542 N   0  0  0  0  0  0  0  0  0  0  0  0
   57.6037   -4.9048   -9.1781 C   0  0  0  0  0  0  0  0  0  0  0  0
   56.4673   -4.2527   -9.6477 C   0  0  0  0  0  0  0  0  0  0  0  0
   55.4888   -3.8058   -8.7334 N   0  0  0  0  0  0  0  0  0  0  0  0
   56.3678   -4.0837  -10.9769 N   0  0  0  0  0  0  0  0  0  0  0  0
   57.2994   -4.5094  -11.8450 C   0  0  0  0  0  0  0  0  0  0  0  0
   58.3835   -5.1356  -11.3500 N   0  0  0  0  0  0  0  0  0  0  0  0
   58.5792   -5.3538  -10.0507 C   0  0  0  0  0  0  0  0  0  0  0  0
   54.8619   -4.5028   -8.2943 H   0  0  0  0  0  0  0  0  0  0  0  0
   55.4157   -2.7950   -8.5194 H   0  0  0  0  0  0  0  0  0  0  0  0
   61.7696   -8.3988  -10.4271 C   0  0  0  0  0  0  0  0  0  0  0  0
   60.5266   -7.8585  -10.2260 O   0  0  0  0  0  0  0  0  0  0  0  0
   60.7256   -6.5247   -9.8619 C   0  0  0  0  0  0  0  0  0  0  0  0
   61.8386   -6.6668   -8.8464 C   0  0  0  0  0  0  0  0  0  0  0  0
   62.4942   -5.4846   -8.5934 O   0  0  0  0  0  0  0  0  0  0  0  0
   62.7707   -7.5759   -9.6555 C   0  0  0  0  0  0  0  0  0  0  0  0
   63.4541   -6.7681  -10.5403 O   0  0  0  0  0  0  0  0  0  0  0  0
   62.1613   -5.0119   -7.7924 H   0  0  0  0  0  0  0  0  0  0  0  0
   63.8827   -7.2410  -11.2843 H   0  0  0  0  0  0  0  0  0  0  0  0
   60.8723   -9.9283   -8.7892 O   0  0  0  0  0  0  0  0  0  0  0  0
   61.7283   -9.8339   -9.8860 C   0  0  0  0  0  0  0  0  0  0  0  0
   60.4480   -9.0661   -8.5873 H   0  0  0  0  0  0  0  0  0  0  0  0
   57.1425   -4.2993  -13.2918 C   0  0  0  0  0  0  0  0  0  0  0  0
   56.1452   -4.8726  -14.0154 C   0  0  0  0  0  0  0  0  0  0  0  0
   56.0366   -4.6474  -15.3710 C   0  0  0  0  0  0  0  0  0  0  0  0
   56.9319   -3.8375  -16.0319 C   0  0  0  0  0  0  0  0  0  0  0  0
   57.9444   -3.2559  -15.2965 C   0  0  0  0  0  0  0  0  0  0  0  0
   58.0454   -3.4874  -13.9375 C   0  0  0  0  0  0  0  0  0  0  0  0
 22 23  1  0  0  0
 23 13  1  0  0  0
 13 14  1  0  0  0
 14 15  1  0  0  0
 15 16  1  0  0  0
 16 17  1  0  0  0
 16 18  1  0  0  0
 18 19  1  0  0  0
 15  1  1  0  0  0
  1  2  1  0  0  0
  2  3  2  0  0  0
  3  4  1  0  0  0
  4  5  2  0  0  0
  5  6  1  0  0  0
  5  7  1  0  0  0
  7  8  2  0  0  0
  8  9  1  0  0  0
  9 10  2  0  0  0
  8 25  1  0  0  0
 25 26  2  0  0  0
 26 27  1  0  0  0
 27 28  2  0  0  0
 28 29  1  0  0  0
 29 30  2  0  0  0
 18 13  1  0  0  0
 10  1  1  0  0  0
 30 25  1  0  0  0
 10  4  1  0  0  0
 22 24  1  0  0  0
 17 20  1  0  0  0
 19 21  1  0  0  0
  6 11  1  0  0  0
  6 12  1  0  0  0
M  END
> <minimizedAffinity>
-6.51198

> <CNNscore>
0.4931518137

> <CNNaffinity>
4.4532351494

> <CNN_VS>
2.1961209774

> <CNNaffinity_variance>
0.2846885026

$$$$
[H]OC([H])([H])[C@@]1([H])O[C@@]([H])(n2c([H])nc3c(N([H])[H])nc(-c4c([H])c([H])c([H])c([H])c4[H])nc32)[C@]([H])(O[H])[C@]1([H])O[H]


 30 33  0  0  0  0  0  0  0  0999 V2000
   56.3521   -5.4483   -6.7846 N   0  0  0  0  0  0  0  0  0  0  0  0
   57.3573   -5.5146   -7.6659 C   0  0  0  0  0  0  0  0  0  0  0  0
   56.9226   -4.9521   -8.8117 N   0  0  0  0  0  0  0  0  0  0  0  0
   55.6700   -4.5376   -8.6627 C   0  0  0  0  0  0  0  0  0  0  0  0
   54.7855   -3.9045   -9.5310 C   0  0  0  0  0  0  0  0  0  0  0  0
   55.1957   -3.5973  -10.8465 N   0  0  0  0  0  0  0  0  0  0  0  0
   53.5635   -3.6166   -9.0524 N   0  0  0  0  0  0  0  0  0  0  0  0
   53.1752   -3.9095   -7.8009 C   0  0  0  0  0  0  0  0  0  0  0  0
   54.0608   -4.5219   -6.9928 N   0  0  0  0  0  0  0  0  0  0  0  0
   55.2958   -4.8509   -7.3679 C   0  0  0  0  0  0  0  0  0  0  0  0
   55.8474   -2.8066  -10.9934 H   0  0  0  0  0  0  0  0  0  0  0  0
   54.8395   -4.1647  -11.6365 H   0  0  0  0  0  0  0  0  0  0  0  0
   57.4846   -6.9359   -3.8166 C   0  0  0  0  0  0  0  0  0  0  0  0
   57.6334   -6.2036   -4.9650 O   0  0  0  0  0  0  0  0  0  0  0  0
   56.3460   -5.9207   -5.4273 C   0  0  0  0  0  0  0  0  0  0  0  0
   55.6845   -7.2741   -5.2823 C   0  0  0  0  0  0  0  0  0  0  0  0
   54.3110   -7.2107   -5.3108 O   0  0  0  0  0  0  0  0  0  0  0  0
   56.1268   -7.5916   -3.8493 C   0  0  0  0  0  0  0  0  0  0  0  0
   55.2826   -6.9019   -3.0043 O   0  0  0  0  0  0  0  0  0  0  0  0
   53.9254   -7.3951   -6.2013 H   0  0  0  0  0  0  0  0  0  0  0  0
   55.6076   -6.8060   -2.0845 H   0  0  0  0  0  0  0  0  0  0  0  0
   59.5636   -7.7067   -4.7708 O   0  0  0  0  0  0  0  0  0  0  0  0
   58.5907   -7.9991   -3.8156 C   0  0  0  0  0  0  0  0  0  0  0  0
   59.3642   -6.8701   -5.2447 H   0  0  0  0  0  0  0  0  0  0  0  0
   51.8251   -3.5727   -7.3257 C   0  0  0  0  0  0  0  0  0  0  0  0
   51.1278   -2.5014   -7.7873 C   0  0  0  0  0  0  0  0  0  0  0  0
   49.8637   -2.2235   -7.3128 C   0  0  0  0  0  0  0  0  0  0  0  0
   49.2703   -3.0197   -6.3598 C   0  0  0  0  0  0  0  0  0  0  0  0
   49.9791   -4.1072   -5.8915 C   0  0  0  0  0  0  0  0  0  0  0  0
   51.2461   -4.3781   -6.3732 C   0  0  0  0  0  0  0  0  0  0  0  0
 22 23  1  0  0  0
 23 13  1  0  0  0
 13 14  1  0  0  0
 14 15  1  0  0  0
 15 16  1  0  0  0
 16 17  1  0  0  0
 16 18  1  0  0  0
 18 19  1  0  0  0
 15  1  1  0  0  0
  1  2  1  0  0  0
  2  3  2  0  0  0
  3  4  1  0  0  0
  4  5  2  0  0  0
  5  6  1  0  0  0
  5  7  1  0  0  0
  7  8  2  0  0  0
  8  9  1  0  0  0
  9 10  2  0  0  0
  8 25  1  0  0  0
 25 26  2  0  0  0
 26 27  1  0  0  0
 27 28  2  0  0  0
 28 29  1  0  0  0
 29 30  2  0  0  0
 18 13  1  0  0  0
 10  1  1  0  0  0
 30 25  1  0  0  0
 10  4  1  0  0  0
 22 24  1  0  0  0
 17 20  1  0  0  0
 19 21  1  0  0  0
  6 11  1  0  0  0
  6 12  1  0  0  0
M  END
> <minimizedAffinity>
-9.52950

> <CNNscore>
0.4735170007

> <CNNaffinity>
5.4907369614

> <CNN_VS>
2.5999572277

> <CNNaffinity_variance>
0.1507687122

$$$$
[H]OC([H])([H])[C@@]1([H])O[C@@]([H])(n2c([H])nc3c(N([H])C([H])([H])c4c([H])c([H])c([H])c(Cl)c4[H])nc([H])nc32)[C@]([H])(O[H])[C@]1([H])O[H]


 31 34  0  0  0  0  0  0  0  0999 V2000
   52.5119   -5.5709   -6.3289 N   0  0  0  0  0  0  0  0  0  0  0  0
   53.6135   -6.2403   -6.7138 C   0  0  0  0  0  0  0  0  0  0  0  0
   54.1836   -5.6178   -7.7730 N   0  0  0  0  0  0  0  0  0  0  0  0
   53.4519   -4.5432   -8.0766 C   0  0  0  0  0  0  0  0  0  0  0  0
   53.5989   -3.5841   -9.0584 C   0  0  0  0  0  0  0  0  0  0  0  0
   52.6567   -2.6270   -9.0704 N   0  0  0  0  0  0  0  0  0  0  0  0
   51.6299   -2.5771   -8.2020 C   0  0  0  0  0  0  0  0  0  0  0  0
   51.5103   -3.5249   -7.2546 N   0  0  0  0  0  0  0  0  0  0  0  0
   52.4129   -4.5245   -7.1696 C   0  0  0  0  0  0  0  0  0  0  0  0
   49.9776   -5.4600   -3.9266 C   0  0  0  0  0  0  0  0  0  0  0  0
   50.4686   -5.2184   -5.2082 O   0  0  0  0  0  0  0  0  0  0  0  0
   51.6375   -5.9392   -5.2251 C   0  0  0  0  0  0  0  0  0  0  0  0
   52.3166   -5.6839   -3.8870 C   0  0  0  0  0  0  0  0  0  0  0  0
   52.8257   -6.8651   -3.3709 O   0  0  0  0  0  0  0  0  0  0  0  0
   51.1752   -5.1329   -3.0717 C   0  0  0  0  0  0  0  0  0  0  0  0
   51.1176   -5.7397   -1.8282 O   0  0  0  0  0  0  0  0  0  0  0  0
   53.7408   -7.0245   -3.6908 H   0  0  0  0  0  0  0  0  0  0  0  0
   51.5333   -6.6383   -1.8221 H   0  0  0  0  0  0  0  0  0  0  0  0
   49.1120   -3.2427   -3.8307 O   0  0  0  0  0  0  0  0  0  0  0  0
   48.7966   -4.5713   -3.6048 C   0  0  0  0  0  0  0  0  0  0  0  0
   50.0719   -3.0342   -3.7089 H   0  0  0  0  0  0  0  0  0  0  0  0
   54.6616   -3.6059   -9.9910 N   0  0  0  0  0  0  0  0  0  0  0  0
   54.4881   -3.0771  -10.9013 H   0  0  0  0  0  0  0  0  0  0  0  0
   55.9200   -4.2533   -9.8372 C   0  0  0  0  0  0  0  0  0  0  0  0
   56.6963   -4.1359  -11.0932 C   0  0  0  0  0  0  0  0  0  0  0  0
   58.0699   -4.2546  -11.0626 C   0  0  0  0  0  0  0  0  0  0  0  0
   58.8247   -4.1513  -12.2064 C   0  0  0  0  0  0  0  0  0  0  0  0
   58.1512   -3.9230  -13.3950 C   0  0  0  0  0  0  0  0  0  0  0  0
   56.7783   -3.8020  -13.4426 C   0  0  0  0  0  0  0  0  0  0  0  0
   55.9351   -3.5132  -14.9503 Cl  0  0  0  0  0  0  0  0  0  0  0  0
   56.0205   -3.9055  -12.2943 C   0  0  0  0  0  0  0  0  0  0  0  0
 19 20  1  0  0  0
 20 10  1  0  0  0
 10 11  1  0  0  0
 11 12  1  0  0  0
 12 13  1  0  0  0
 13 14  1  0  0  0
 13 15  1  0  0  0
 15 16  1  0  0  0
 12  1  1  0  0  0
  1  2  1  0  0  0
  2  3  2  0  0  0
  3  4  1  0  0  0
  4  5  2  0  0  0
  5 22  1  0  0  0
 22 24  1  0  0  0
 24 25  1  0  0  0
 25 26  2  0  0  0
 26 27  1  0  0  0
 27 28  2  0  0  0
 28 29  1  0  0  0
 29 30  1  0  0  0
 29 31  2  0  0  0
  5  6  1  0  0  0
  6  7  2  0  0  0
  7  8  1  0  0  0
  8  9  2  0  0  0
 15 10  1  0  0  0
  9  1  1  0  0  0
  9  4  1  0  0  0
 31 25  1  0  0  0
 19 21  1  0  0  0
 14 17  1  0  0  0
 16 18  1  0  0  0
 22 23  1  0  0  0
M  END
> <minimizedAffinity>
-8.94213

> <CNNscore>
0.7034462094

> <CNNaffinity>
6.2011694908

> <CNN_VS>
4.3621892929

> <CNNaffinity_variance>
0.0834343359

$$$$
[H]OC([H])([H])[C@@]1([H])O[C@@]([H])(n2c([H])nc3c(N([H])C([H])([H])c4c([H])c([H])c([H])c(Cl)c4[H])nc([H])nc32)[C@]([H])(O[H])[C@]1([H])O[H]


 31 34  0  0  0  0  0  0  0  0999 V2000
   59.0854   -5.8961   -8.8589 N   0  0  0  0  0  0  0  0  0  0  0  0
   58.1890   -5.7911   -7.8614 C   0  0  0  0  0  0  0  0  0  0  0  0
   57.0886   -5.1335   -8.2989 N   0  0  0  0  0  0  0  0  0  0  0  0
   57.2704   -4.8110   -9.5816 C   0  0  0  0  0  0  0  0  0  0  0  0
   56.4622   -4.1443  -10.4805 C   0  0  0  0  0  0  0  0  0  0  0  0
   56.9764   -3.9948  -11.7122 N   0  0  0  0  0  0  0  0  0  0  0  0
   58.1891   -4.4502  -12.0770 C   0  0  0  0  0  0  0  0  0  0  0  0
   58.9566   -5.0969  -11.1808 N   0  0  0  0  0  0  0  0  0  0  0  0
   58.5183   -5.2916   -9.9193 C   0  0  0  0  0  0  0  0  0  0  0  0
   62.5296   -6.3785   -8.5258 C   0  0  0  0  0  0  0  0  0  0  0  0
   61.3404   -5.7326   -8.1929 O   0  0  0  0  0  0  0  0  0  0  0  0
   60.3878   -6.5394   -8.7653 C   0  0  0  0  0  0  0  0  0  0  0  0
   60.9118   -6.9062  -10.1465 C   0  0  0  0  0  0  0  0  0  0  0  0
   60.6957   -8.2509  -10.4033 O   0  0  0  0  0  0  0  0  0  0  0  0
   62.3732   -6.5633  -10.0135 C   0  0  0  0  0  0  0  0  0  0  0  0
   63.1678   -7.5858  -10.5048 O   0  0  0  0  0  0  0  0  0  0  0  0
   59.8133   -8.3950  -10.8104 H   0  0  0  0  0  0  0  0  0  0  0  0
   62.7125   -8.4648  -10.4882 H   0  0  0  0  0  0  0  0  0  0  0  0
   64.6450   -5.5413   -9.2323 O   0  0  0  0  0  0  0  0  0  0  0  0
   63.7374   -5.5329   -8.1874 C   0  0  0  0  0  0  0  0  0  0  0  0
   64.6241   -6.3704   -9.7723 H   0  0  0  0  0  0  0  0  0  0  0  0
   55.1847   -3.6477  -10.1328 N   0  0  0  0  0  0  0  0  0  0  0  0
   54.4015   -3.8631  -10.8246 H   0  0  0  0  0  0  0  0  0  0  0  0
   54.8462   -2.9007   -8.9692 C   0  0  0  0  0  0  0  0  0  0  0  0
   53.6820   -3.5247   -8.2991 C   0  0  0  0  0  0  0  0  0  0  0  0
   53.7603   -4.8323   -7.8678 C   0  0  0  0  0  0  0  0  0  0  0  0
   52.7017   -5.4462   -7.2424 C   0  0  0  0  0  0  0  0  0  0  0  0
   51.5495   -4.6993   -7.0609 C   0  0  0  0  0  0  0  0  0  0  0  0
   51.4551   -3.3909   -7.4862 C   0  0  0  0  0  0  0  0  0  0  0  0
   49.9939   -2.4540   -7.2524 Cl  0  0  0  0  0  0  0  0  0  0  0  0
   52.5178   -2.7745   -8.1142 C   0  0  0  0  0  0  0  0  0  0  0  0
 19 20  1  0  0  0
 20 10  1  0  0  0
 10 11  1  0  0  0
 11 12  1  0  0  0
 12 13  1  0  0  0
 13 14  1  0  0  0
 13 15  1  0  0  0
 15 16  1  0  0  0
 12  1  1  0  0  0
  1  2  1  0  0  0
  2  3  2  0  0  0
  3  4  1  0  0  0
  4  5  2  0  0  0
  5 22  1  0  0  0
 22 24  1  0  0  0
 24 25  1  0  0  0
 25 26  2  0  0  0
 26 27  1  0  0  0
 27 28  2  0  0  0
 28 29  1  0  0  0
 29 30  1  0  0  0
 29 31  2  0  0  0
  5  6  1  0  0  0
  6  7  2  0  0  0
  7  8  1  0  0  0
  8  9  2  0  0  0
 15 10  1  0  0  0
  9  1  1  0  0  0
  9  4  1  0  0  0
 31 25  1  0  0  0
 19 21  1  0  0  0
 14 17  1  0  0  0
 16 18  1  0  0  0
 22 23  1  0  0  0
M  END
> <minimizedAffinity>
-7.68798

> <CNNscore>
0.6176390052

> <CNNaffinity>
5.6946668625

> <CNN_VS>
3.5172483921

> <CNNaffinity_variance>
0.0770076439

$$$$
[H]OC([H])([H])[C@@]1([H])O[C@@]([H])(n2c([H])nc3c(N([H])C([H])([H])c4c([H])c([H])c([H])c(Cl)c4[H])nc([H])nc32)[C@]([H])(O[H])[C@]1([H])O[H]


 31 34  0  0  0  0  0  0  0  0999 V2000
   59.2587   -5.8067   -9.3979 N   0  0  0  0  0  0  0  0  0  0  0  0
   58.7179   -5.6672   -8.1740 C   0  0  0  0  0  0  0  0  0  0  0  0
   57.5548   -4.9786   -8.2607 N   0  0  0  0  0  0  0  0  0  0  0  0
   57.3398   -4.6704   -9.5418 C   0  0  0  0  0  0  0  0  0  0  0  0
   56.3121   -3.9848  -10.1576 C   0  0  0  0  0  0  0  0  0  0  0  0
   56.4241   -3.8595  -11.4900 N   0  0  0  0  0  0  0  0  0  0  0  0
   57.4515   -4.3549  -12.2043 C   0  0  0  0  0  0  0  0  0  0  0  0
   58.4404   -5.0192  -11.5788 N   0  0  0  0  0  0  0  0  0  0  0  0
   58.4084   -5.1918  -10.2407 C   0  0  0  0  0  0  0  0  0  0  0  0
   61.5937   -8.3327  -10.0090 C   0  0  0  0  0  0  0  0  0  0  0  0
   60.3190   -7.7816  -10.1263 O   0  0  0  0  0  0  0  0  0  0  0  0
   60.5079   -6.4896   -9.7009 C   0  0  0  0  0  0  0  0  0  0  0  0
   61.3944   -6.5712   -8.4662 C   0  0  0  0  0  0  0  0  0  0  0  0
   62.3701   -5.5877   -8.5067 O   0  0  0  0  0  0  0  0  0  0  0  0
   61.9599   -7.9622   -8.5946 C   0  0  0  0  0  0  0  0  0  0  0  0
   63.3292   -7.9605   -8.3871 O   0  0  0  0  0  0  0  0  0  0  0  0
   62.0487   -4.7547   -8.0970 H   0  0  0  0  0  0  0  0  0  0  0  0
   63.7430   -7.0813   -8.5768 H   0  0  0  0  0  0  0  0  0  0  0  0
   61.5424  -10.4864   -8.9924 O   0  0  0  0  0  0  0  0  0  0  0  0
   61.5742   -9.8316  -10.2114 C   0  0  0  0  0  0  0  0  0  0  0  0
   61.9773   -9.9847   -8.2584 H   0  0  0  0  0  0  0  0  0  0  0  0
   55.2188   -3.4463   -9.4402 N   0  0  0  0  0  0  0  0  0  0  0  0
   55.4646   -2.9475   -8.5297 H   0  0  0  0  0  0  0  0  0  0  0  0
   53.8447   -3.5032   -9.8077 C   0  0  0  0  0  0  0  0  0  0  0  0
   53.0236   -3.8134   -8.6146 C   0  0  0  0  0  0  0  0  0  0  0  0
   53.3429   -4.8997   -7.8273 C   0  0  0  0  0  0  0  0  0  0  0  0
   52.6052   -5.2199   -6.7129 C   0  0  0  0  0  0  0  0  0  0  0  0
   51.5254   -4.4073   -6.4093 C   0  0  0  0  0  0  0  0  0  0  0  0
   51.1929   -3.3174   -7.1861 C   0  0  0  0  0  0  0  0  0  0  0  0
   49.8255   -2.2954   -6.7945 Cl  0  0  0  0  0  0  0  0  0  0  0  0
   51.9334   -2.9960   -8.3050 C   0  0  0  0  0  0  0  0  0  0  0  0
 19 20  1  0  0  0
 20 10  1  0  0  0
 10 11  1  0  0  0
 11 12  1  0  0  0
 12 13  1  0  0  0
 13 14  1  0  0  0
 13 15  1  0  0  0
 15 16  1  0  0  0
 12  1  1  0  0  0
  1  2  1  0  0  0
  2  3  2  0  0  0
  3  4  1  0  0  0
  4  5  2  0  0  0
  5 22  1  0  0  0
 22 24  1  0  0  0
 24 25  1  0  0  0
 25 26  2  0  0  0
 26 27  1  0  0  0
 27 28  2  0  0  0
 28 29  1  0  0  0
 29 30  1  0  0  0
 29 31  2  0  0  0
  5  6  1  0  0  0
  6  7  2  0  0  0
  7  8  1  0  0  0
  8  9  2  0  0  0
 15 10  1  0  0  0
  9  1  1  0  0  0
  9  4  1  0  0  0
 31 25  1  0  0  0
 19 21  1  0  0  0
 14 17  1  0  0  0
 16 18  1  0  0  0
 22 23  1  0  0  0
M  END
> <minimizedAffinity>
-8.74170

> <CNNscore>
0.5528937578

> <CNNaffinity>
5.6515836716

> <CNN_VS>
3.1247253418

> <CNNaffinity_variance>
0.1631043553

$$$$
[H]OC([H])([H])[C@@]1([H])O[C@@]([H])(n2c([H])nc3c(N([H])C([H])([H])c4c([H])c([H])c([H])c(Cl)c4[H])nc([H])nc32)[C@]([H])(O[H])[C@]1([H])O[H]


 31 34  0  0  0  0  0  0  0  0999 V2000
   53.4904   -4.0776   -8.0596 N   0  0  0  0  0  0  0  0  0  0  0  0
   52.9348   -3.5393   -9.1601 C   0  0  0  0  0  0  0  0  0  0  0  0
   53.8618   -3.4421  -10.1430 N   0  0  0  0  0  0  0  0  0  0  0  0
   55.0204   -3.9176   -9.6806 C   0  0  0  0  0  0  0  0  0  0  0  0
   56.2603   -4.0420  -10.2745 C   0  0  0  0  0  0  0  0  0  0  0  0
   57.2174   -4.5744   -9.4971 N   0  0  0  0  0  0  0  0  0  0  0  0
   57.0157   -4.9689   -8.2264 C   0  0  0  0  0  0  0  0  0  0  0  0
   55.7971   -4.8362   -7.6717 N   0  0  0  0  0  0  0  0  0  0  0  0
   54.7764   -4.3106   -8.3812 C   0  0  0  0  0  0  0  0  0  0  0  0
   52.5295   -5.5756   -5.0531 C   0  0  0  0  0  0  0  0  0  0  0  0
   53.4932   -5.2007   -5.9874 O   0  0  0  0  0  0  0  0  0  0  0  0
   52.8040   -4.3364   -6.8023 C   0  0  0  0  0  0  0  0  0  0  0  0
   51.4438   -4.9736   -7.0485 C   0  0  0  0  0  0  0  0  0  0  0  0
   50.4408   -4.0217   -6.9550 O   0  0  0  0  0  0  0  0  0  0  0  0
   51.3864   -5.9948   -5.9417 C   0  0  0  0  0  0  0  0  0  0  0  0
   50.1658   -5.9484   -5.2889 O   0  0  0  0  0  0  0  0  0  0  0  0
   50.2829   -3.5891   -7.8228 H   0  0  0  0  0  0  0  0  0  0  0  0
   49.7227   -5.0668   -5.3699 H   0  0  0  0  0  0  0  0  0  0  0  0
   54.3060   -7.0692   -4.5164 O   0  0  0  0  0  0  0  0  0  0  0  0
   53.0111   -6.7137   -4.1808 C   0  0  0  0  0  0  0  0  0  0  0  0
   54.5326   -6.9017   -5.4652 H   0  0  0  0  0  0  0  0  0  0  0  0
   56.5114   -3.6348  -11.6052 N   0  0  0  0  0  0  0  0  0  0  0  0
   55.6924   -3.1725  -12.1090 H   0  0  0  0  0  0  0  0  0  0  0  0
   57.7300   -3.7785  -12.3270 C   0  0  0  0  0  0  0  0  0  0  0  0
   57.4494   -3.7770  -13.7813 C   0  0  0  0  0  0  0  0  0  0  0  0
   56.2811   -4.3373  -14.2537 C   0  0  0  0  0  0  0  0  0  0  0  0
   55.9853   -4.3555  -15.5956 C   0  0  0  0  0  0  0  0  0  0  0  0
   56.9080   -3.7877  -16.4585 C   0  0  0  0  0  0  0  0  0  0  0  0
   58.0807   -3.2234  -16.0023 C   0  0  0  0  0  0  0  0  0  0  0  0
   59.2418   -2.5076  -17.1009 Cl  0  0  0  0  0  0  0  0  0  0  0  0
   58.3778   -3.2052  -14.6551 C   0  0  0  0  0  0  0  0  0  0  0  0
 19 20  1  0  0  0
 20 10  1  0  0  0
 10 11  1  0  0  0
 11 12  1  0  0  0
 12 13  1  0  0  0
 13 14  1  0  0  0
 13 15  1  0  0  0
 15 16  1  0  0  0
 12  1  1  0  0  0
  1  2  1  0  0  0
  2  3  2  0  0  0
  3  4  1  0  0  0
  4  5  2  0  0  0
  5 22  1  0  0  0
 22 24  1  0  0  0
 24 25  1  0  0  0
 25 26  2  0  0  0
 26 27  1  0  0  0
 27 28  2  0  0  0
 28 29  1  0  0  0
 29 30  1  0  0  0
 29 31  2  0  0  0
  5  6  1  0  0  0
  6  7  2  0  0  0
  7  8  1  0  0  0
  8  9  2  0  0  0
 15 10  1  0  0  0
  9  1  1  0  0  0
  9  4  1  0  0  0
 31 25  1  0  0  0
 19 21  1  0  0  0
 14 17  1  0  0  0
 16 18  1  0  0  0
 22 23  1  0  0  0
M  END
> <minimizedAffinity>
-7.61967

> <CNNscore>
0.4664328098

> <CNNaffinity>
5.7113151550

> <CNN_VS>
2.6639447212

> <CNNaffinity_variance>
0.1875436008

$$$$
[H]OC([H])([H])[C@@]1([H])O[C@@]([H])(n2c([H])nc3c(N([H])C([H])([H])c4c([H])c([H])c([H])c(Cl)c4[H])nc([H])nc32)[C@]([H])(O[H])[C@]1([H])O[H]


 31 34  0  0  0  0  0  0  0  0999 V2000
   58.9655   -5.4984   -9.2694 N   0  0  0  0  0  0  0  0  0  0  0  0
   58.1681   -5.4864   -8.1860 C   0  0  0  0  0  0  0  0  0  0  0  0
   56.9397   -5.0267   -8.5238 N   0  0  0  0  0  0  0  0  0  0  0  0
   56.9389   -4.7398   -9.8276 C   0  0  0  0  0  0  0  0  0  0  0  0
   55.9498   -4.2476  -10.6553 C   0  0  0  0  0  0  0  0  0  0  0  0
   56.3081   -4.0779  -11.9385 N   0  0  0  0  0  0  0  0  0  0  0  0
   57.5346   -4.3579  -12.4161 C   0  0  0  0  0  0  0  0  0  0  0  0
   58.4804   -4.8367  -11.5875 N   0  0  0  0  0  0  0  0  0  0  0  0
   58.2068   -5.0380  -10.2813 C   0  0  0  0  0  0  0  0  0  0  0  0
   62.0110   -6.8101  -10.3695 C   0  0  0  0  0  0  0  0  0  0  0  0
   60.8446   -6.0744  -10.5704 O   0  0  0  0  0  0  0  0  0  0  0  0
   60.3557   -5.9288   -9.2953 C   0  0  0  0  0  0  0  0  0  0  0  0
   60.5167   -7.2826   -8.6183 C   0  0  0  0  0  0  0  0  0  0  0  0
   60.9927   -7.1227   -7.3265 O   0  0  0  0  0  0  0  0  0  0  0  0
   61.5105   -7.9567   -9.5289 C   0  0  0  0  0  0  0  0  0  0  0  0
   62.5225   -8.5570   -8.7985 O   0  0  0  0  0  0  0  0  0  0  0  0
   60.2535   -7.0054   -6.6902 H   0  0  0  0  0  0  0  0  0  0  0  0
   62.6489   -8.1420   -7.9086 H   0  0  0  0  0  0  0  0  0  0  0  0
   62.4083   -6.3433  -12.6715 O   0  0  0  0  0  0  0  0  0  0  0  0
   62.6019   -7.2870  -11.6778 C   0  0  0  0  0  0  0  0  0  0  0  0
   61.5970   -5.7908  -12.5445 H   0  0  0  0  0  0  0  0  0  0  0  0
   54.6513   -3.9376  -10.1890 N   0  0  0  0  0  0  0  0  0  0  0  0
   53.8854   -4.6285  -10.4620 H   0  0  0  0  0  0  0  0  0  0  0  0
   54.2715   -2.8126   -9.4038 C   0  0  0  0  0  0  0  0  0  0  0  0
   53.1595   -3.1893   -8.5008 C   0  0  0  0  0  0  0  0  0  0  0  0
   52.0289   -2.4017   -8.4416 C   0  0  0  0  0  0  0  0  0  0  0  0
   50.9766   -2.7179   -7.6162 C   0  0  0  0  0  0  0  0  0  0  0  0
   51.0948   -3.8614   -6.8437 C   0  0  0  0  0  0  0  0  0  0  0  0
   52.2184   -4.6596   -6.8913 C   0  0  0  0  0  0  0  0  0  0  0  0
   52.3592   -6.1039   -5.9106 Cl  0  0  0  0  0  0  0  0  0  0  0  0
   53.2750   -4.3422   -7.7198 C   0  0  0  0  0  0  0  0  0  0  0  0
 19 20  1  0  0  0
 20 10  1  0  0  0
 10 11  1  0  0  0
 11 12  1  0  0  0
 12 13  1  0  0  0
 13 14  1  0  0  0
 13 15  1  0  0  0
 15 16  1  0  0  0
 12  1  1  0  0  0
  1  2  1  0  0  0
  2  3  2  0  0  0
  3  4  1  0  0  0
  4  5  2  0  0  0
  5 22  1  0  0  0
 22 24  1  0  0  0
 24 25  1  0  0  0
 25 26  2  0  0  0
 26 27  1  0  0  0
 27 28  2  0  0  0
 28 29  1  0  0  0
 29 30  1  0  0  0
 29 31  2  0  0  0
  5  6  1  0  0  0
  6  7  2  0  0  0
  7  8  1  0  0  0
  8  9  2  0  0  0
 15 10  1  0  0  0
  9  1  1  0  0  0
  9  4  1  0  0  0
 31 25  1  0  0  0
 19 21  1  0  0  0
 14 17  1  0  0  0
 16 18  1  0  0  0
 22 23  1  0  0  0
M  END
> <minimizedAffinity>
-8.71740

> <CNNscore>
0.4603225589

> <CNNaffinity>
5.5607476234

> <CNN_VS>
2.5597376823

> <CNNaffinity_variance>
0.0486535057

$$$$
[H]OC([H])([H])[C@@]1([H])O[C@@]([H])(n2c([H])nc3c(N([H])C([H])([H])c4c([H])c([H])c([H])c(Cl)c4[H])nc([H])nc32)[C@]([H])(O[H])[C@]1([H])O[H]


 31 34  0  0  0  0  0  0  0  0999 V2000
   55.8673   -3.9913  -10.3852 N   0  0  0  0  0  0  0  0  0  0  0  0
   56.5900   -4.7618   -9.5522 C   0  0  0  0  0  0  0  0  0  0  0  0
   55.8792   -5.0162   -8.4277 N   0  0  0  0  0  0  0  0  0  0  0  0
   54.6938   -4.4107   -8.5301 C   0  0  0  0  0  0  0  0  0  0  0  0
   53.6165   -4.3574   -7.6688 C   0  0  0  0  0  0  0  0  0  0  0  0
   52.5678   -3.6413   -8.1060 N   0  0  0  0  0  0  0  0  0  0  0  0
   52.5368   -3.0087   -9.2934 C   0  0  0  0  0  0  0  0  0  0  0  0
   53.6008   -3.0769  -10.1141 N   0  0  0  0  0  0  0  0  0  0  0  0
   54.6982   -3.7753   -9.7543 C   0  0  0  0  0  0  0  0  0  0  0  0
   56.4531   -3.8137  -13.8249 C   0  0  0  0  0  0  0  0  0  0  0  0
   55.6595   -4.1442  -12.7280 O   0  0  0  0  0  0  0  0  0  0  0  0
   56.3007   -3.5136  -11.6901 C   0  0  0  0  0  0  0  0  0  0  0  0
   57.7886   -3.7630  -11.8918 C   0  0  0  0  0  0  0  0  0  0  0  0
   58.5088   -2.6025  -11.6566 O   0  0  0  0  0  0  0  0  0  0  0  0
   57.8274   -4.1932  -13.3356 C   0  0  0  0  0  0  0  0  0  0  0  0
   58.8330   -3.5328  -14.0216 O   0  0  0  0  0  0  0  0  0  0  0  0
   58.7532   -2.5250  -10.7082 H   0  0  0  0  0  0  0  0  0  0  0  0
   59.0754   -2.6681  -13.6047 H   0  0  0  0  0  0  0  0  0  0  0  0
   56.3266   -5.9445  -14.8825 O   0  0  0  0  0  0  0  0  0  0  0  0
   56.0574   -4.5980  -15.0563 C   0  0  0  0  0  0  0  0  0  0  0  0
   57.0860   -6.1243  -14.2738 H   0  0  0  0  0  0  0  0  0  0  0  0
   53.6139   -5.0052   -6.4117 N   0  0  0  0  0  0  0  0  0  0  0  0
   54.3280   -4.6454   -5.7054 H   0  0  0  0  0  0  0  0  0  0  0  0
   52.7658   -6.0728   -6.0025 C   0  0  0  0  0  0  0  0  0  0  0  0
   51.7105   -5.5524   -5.1029 C   0  0  0  0  0  0  0  0  0  0  0  0
   51.6044   -6.0411   -3.8176 C   0  0  0  0  0  0  0  0  0  0  0  0
   50.6386   -5.5837   -2.9535 C   0  0  0  0  0  0  0  0  0  0  0  0
   49.7731   -4.6100   -3.4240 C   0  0  0  0  0  0  0  0  0  0  0  0
   49.8658   -4.1110   -4.7062 C   0  0  0  0  0  0  0  0  0  0  0  0
   48.7668   -2.8798   -5.2925 Cl  0  0  0  0  0  0  0  0  0  0  0  0
   50.8353   -4.5702   -5.5738 C   0  0  0  0  0  0  0  0  0  0  0  0
 19 20  1  0  0  0
 20 10  1  0  0  0
 10 11  1  0  0  0
 11 12  1  0  0  0
 12 13  1  0  0  0
 13 14  1  0  0  0
 13 15  1  0  0  0
 15 16  1  0  0  0
 12  1  1  0  0  0
  1  2  1  0  0  0
  2  3  2  0  0  0
  3  4  1  0  0  0
  4  5  2  0  0  0
  5 22  1  0  0  0
 22 24  1  0  0  0
 24 25  1  0  0  0
 25 26  2  0  0  0
 26 27  1  0  0  0
 27 28  2  0  0  0
 28 29  1  0  0  0
 29 30  1  0  0  0
 29 31  2  0  0  0
  5  6  1  0  0  0
  6  7  2  0  0  0
  7  8  1  0  0  0
  8  9  2  0  0  0
 15 10  1  0  0  0
  9  1  1  0  0  0
  9  4  1  0  0  0
 31 25  1  0  0  0
 19 21  1  0  0  0
 14 17  1  0  0  0
 16 18  1  0  0  0
 22 23  1  0  0  0
M  END
> <minimizedAffinity>
-8.91426

> <CNNscore>
0.4287307560

> <CNNaffinity>
6.0837535858

> <CNN_VS>
2.6082923412

> <CNNaffinity_variance>
0.2467113733

$$$$
[H]OC([H])([H])[C@@]1([H])O[C@@]([H])(n2c([H])nc3c(N([H])C([H])([H])c4c([H])c([H])c([H])c(Cl)c4[H])nc([H])nc32)[C@]([H])(O[H])[C@]1([H])O[H]


 31 34  0  0  0  0  0  0  0  0999 V2000
   52.4178   -4.0466   -8.2441 N   0  0  0  0  0  0  0  0  0  0  0  0
   52.5185   -3.2977   -9.3571 C   0  0  0  0  0  0  0  0  0  0  0  0
   53.7952   -3.3144   -9.8090 N   0  0  0  0  0  0  0  0  0  0  0  0
   54.5246   -4.0745   -8.9889 C   0  0  0  0  0  0  0  0  0  0  0  0
   55.8630   -4.4120   -9.0030 C   0  0  0  0  0  0  0  0  0  0  0  0
   56.2629   -5.2128   -8.0018 N   0  0  0  0  0  0  0  0  0  0  0  0
   55.4434   -5.6715   -7.0379 C   0  0  0  0  0  0  0  0  0  0  0  0
   54.1428   -5.3271   -7.0478 N   0  0  0  0  0  0  0  0  0  0  0  0
   53.6552   -4.5253   -8.0176 C   0  0  0  0  0  0  0  0  0  0  0  0
   49.7161   -3.5253   -6.0911 C   0  0  0  0  0  0  0  0  0  0  0  0
   50.6086   -3.0947   -7.0710 O   0  0  0  0  0  0  0  0  0  0  0  0
   51.2010   -4.2657   -7.4758 C   0  0  0  0  0  0  0  0  0  0  0  0
   51.4948   -5.0566   -6.2090 C   0  0  0  0  0  0  0  0  0  0  0  0
   51.1639   -6.3909   -6.3853 O   0  0  0  0  0  0  0  0  0  0  0  0
   50.6078   -4.3610   -5.2088 C   0  0  0  0  0  0  0  0  0  0  0  0
   49.8949   -5.2798   -4.4568 O   0  0  0  0  0  0  0  0  0  0  0  0
   51.9207   -6.8962   -6.7556 H   0  0  0  0  0  0  0  0  0  0  0  0
   49.7783   -6.1458   -4.9223 H   0  0  0  0  0  0  0  0  0  0  0  0
   48.2409   -2.8144   -4.3610 O   0  0  0  0  0  0  0  0  0  0  0  0
   49.1101   -2.3616   -5.3383 C   0  0  0  0  0  0  0  0  0  0  0  0
   47.8106   -3.6786   -4.5790 H   0  0  0  0  0  0  0  0  0  0  0  0
   56.7553   -3.9460   -9.9963 N   0  0  0  0  0  0  0  0  0  0  0  0
   56.5859   -2.9498  -10.3386 H   0  0  0  0  0  0  0  0  0  0  0  0
   57.8399   -4.6639  -10.5749 C   0  0  0  0  0  0  0  0  0  0  0  0
   58.0412   -4.2184  -11.9731 C   0  0  0  0  0  0  0  0  0  0  0  0
   59.3140   -3.9437  -12.4275 C   0  0  0  0  0  0  0  0  0  0  0  0
   59.5412   -3.5279  -13.7175 C   0  0  0  0  0  0  0  0  0  0  0  0
   58.4398   -3.3950  -14.5467 C   0  0  0  0  0  0  0  0  0  0  0  0
   57.1607   -3.6657  -14.1078 C   0  0  0  0  0  0  0  0  0  0  0  0
   55.7738   -3.4947  -15.1636 Cl  0  0  0  0  0  0  0  0  0  0  0  0
   56.9325   -4.0830  -12.8127 C   0  0  0  0  0  0  0  0  0  0  0  0
 19 20  1  0  0  0
 20 10  1  0  0  0
 10 11  1  0  0  0
 11 12  1  0  0  0
 12 13  1  0  0  0
 13 14  1  0  0  0
 13 15  1  0  0  0
 15 16  1  0  0  0
 12  1  1  0  0  0
  1  2  1  0  0  0
  2  3  2  0  0  0
  3  4  1  0  0  0
  4  5  2  0  0  0
  5 22  1  0  0  0
 22 24  1  0  0  0
 24 25  1  0  0  0
 25 26  2  0  0  0
 26 27  1  0  0  0
 27 28  2  0  0  0
 28 29  1  0  0  0
 29 30  1  0  0  0
 29 31  2  0  0  0
  5  6  1  0  0  0
  6  7  2  0  0  0
  7  8  1  0  0  0
  8  9  2  0  0  0
 15 10  1  0  0  0
  9  1  1  0  0  0
  9  4  1  0  0  0
 31 25  1  0  0  0
 19 21  1  0  0  0
 14 17  1  0  0  0
 16 18  1  0  0  0
 22 23  1  0  0  0
M  END
> <minimizedAffinity>
-7.74170

> <CNNscore>
0.4153168499

> <CNNaffinity>
6.0111227036

> <CNN_VS>
2.4965205193

> <CNNaffinity_variance>
0.1738907844

$$$$
[H]OC([H])([H])[C@@]1([H])O[C@@]([H])(n2c([H])nc3c(N([H])C([H])([H])c4c([H])c([H])c([H])c(Cl)c4[H])nc([H])nc32)[C@]([H])(O[H])[C@]1([H])O[H]


 31 34  0  0  0  0  0  0  0  0999 V2000
   59.1210   -5.9459   -9.3794 N   0  0  0  0  0  0  0  0  0  0  0  0
   58.6439   -5.6784   -8.1504 C   0  0  0  0  0  0  0  0  0  0  0  0
   57.5488   -4.8868   -8.2441 N   0  0  0  0  0  0  0  0  0  0  0  0
   57.3143   -4.6398   -9.5350 C   0  0  0  0  0  0  0  0  0  0  0  0
   56.3330   -3.8975  -10.1607 C   0  0  0  0  0  0  0  0  0  0  0  0
   56.4045   -3.8672  -11.5015 N   0  0  0  0  0  0  0  0  0  0  0  0
   57.3517   -4.5036  -12.2147 C   0  0  0  0  0  0  0  0  0  0  0  0
   58.2967   -5.2205  -11.5796 N   0  0  0  0  0  0  0  0  0  0  0  0
   58.3006   -5.3053  -10.2327 C   0  0  0  0  0  0  0  0  0  0  0  0
   62.0444   -7.8193   -8.9920 C   0  0  0  0  0  0  0  0  0  0  0  0
   60.7794   -7.4129   -8.5714 O   0  0  0  0  0  0  0  0  0  0  0  0
   60.2871   -6.7646   -9.6775 C   0  0  0  0  0  0  0  0  0  0  0  0
   61.4263   -5.9100  -10.2148 C   0  0  0  0  0  0  0  0  0  0  0  0
   61.4885   -6.0019  -11.5963 O   0  0  0  0  0  0  0  0  0  0  0  0
   62.6165   -6.5339   -9.5326 C   0  0  0  0  0  0  0  0  0  0  0  0
   63.6451   -6.7518  -10.4340 O   0  0  0  0  0  0  0  0  0  0  0  0
   60.9156   -5.3262  -12.0210 H   0  0  0  0  0  0  0  0  0  0  0  0
   63.3237   -6.8384  -11.3664 H   0  0  0  0  0  0  0  0  0  0  0  0
   63.9019   -7.4977   -7.5356 O   0  0  0  0  0  0  0  0  0  0  0  0
   62.8662   -8.3624   -7.8440 C   0  0  0  0  0  0  0  0  0  0  0  0
   64.2240   -6.9693   -8.3081 H   0  0  0  0  0  0  0  0  0  0  0  0
   55.3245   -3.2115   -9.4450 N   0  0  0  0  0  0  0  0  0  0  0  0
   55.6603   -2.6335   -8.6134 H   0  0  0  0  0  0  0  0  0  0  0  0
   53.9279   -3.2163   -9.7205 C   0  0  0  0  0  0  0  0  0  0  0  0
   53.1886   -3.7021   -8.5326 C   0  0  0  0  0  0  0  0  0  0  0  0
   52.0045   -3.0962   -8.1681 C   0  0  0  0  0  0  0  0  0  0  0  0
   51.2900   -3.5180   -7.0726 C   0  0  0  0  0  0  0  0  0  0  0  0
   51.8058   -4.5785   -6.3462 C   0  0  0  0  0  0  0  0  0  0  0  0
   52.9882   -5.1953   -6.6973 C   0  0  0  0  0  0  0  0  0  0  0  0
   53.6329   -6.5357   -5.7726 Cl  0  0  0  0  0  0  0  0  0  0  0  0
   53.7057   -4.7717   -7.7971 C   0  0  0  0  0  0  0  0  0  0  0  0
 19 20  1  0  0  0
 20 10  1  0  0  0
 10 11  1  0  0  0
 11 12  1  0  0  0
 12 13  1  0  0  0
 13 14  1  0  0  0
 13 15  1  0  0  0
 15 16  1  0  0  0
 12  1  1  0  0  0
  1  2  1  0  0  0
  2  3  2  0  0  0
  3  4  1  0  0  0
  4  5  2  0  0  0
  5 22  1  0  0  0
 22 24  1  0  0  0
 24 25  1  0  0  0
 25 26  2  0  0  0
 26 27  1  0  0  0
 27 28  2  0  0  0
 28 29  1  0  0  0
 29 30  1  0  0  0
 29 31  2  0  0  0
  5  6  1  0  0  0
  6  7  2  0  0  0
  7  8  1  0  0  0
  8  9  2  0  0  0
 15 10  1  0  0  0
  9  1  1  0  0  0
  9  4  1  0  0  0
 31 25  1  0  0  0
 19 21  1  0  0  0
 14 17  1  0  0  0
 16 18  1  0  0  0
 22 23  1  0  0  0
M  END
> <minimizedAffinity>
-7.18291

> <CNNscore>
0.3972109556

> <CNNaffinity>
5.5078368187

> <CNN_VS>
2.1877732277

> <CNNaffinity_variance>
0.0907502621

$$$$
[H]OC([H])([H])[C@@]1([H])O[C@@]([H])(n2c([H])nc3c(N([H])C([H])([H])c4c([H])c([H])c([H])c(Cl)c4[H])nc([H])nc32)[C@]([H])(O[H])[C@]1([H])O[H]


 31 34  0  0  0  0  0  0  0  0999 V2000
   54.8996   -4.3704   -8.4202 N   0  0  0  0  0  0  0  0  0  0  0  0
   54.7681   -5.4644   -7.6486 C   0  0  0  0  0  0  0  0  0  0  0  0
   53.5315   -5.4924   -7.0967 N   0  0  0  0  0  0  0  0  0  0  0  0
   52.8591   -4.4157   -7.5100 C   0  0  0  0  0  0  0  0  0  0  0  0
   51.5772   -3.9793   -7.2420 C   0  0  0  0  0  0  0  0  0  0  0  0
   51.2259   -2.8300   -7.8415 N   0  0  0  0  0  0  0  0  0  0  0  0
   52.0407   -2.1291   -8.6513 C   0  0  0  0  0  0  0  0  0  0  0  0
   53.2857   -2.5771   -8.8957 N   0  0  0  0  0  0  0  0  0  0  0  0
   53.7220   -3.7242   -8.3344 C   0  0  0  0  0  0  0  0  0  0  0  0
   57.1027   -3.8098  -11.0732 C   0  0  0  0  0  0  0  0  0  0  0  0
   55.8299   -3.7877  -10.5060 O   0  0  0  0  0  0  0  0  0  0  0  0
   56.0887   -4.0015   -9.1743 C   0  0  0  0  0  0  0  0  0  0  0  0
   57.1335   -5.1068   -9.1137 C   0  0  0  0  0  0  0  0  0  0  0  0
   58.1053   -4.8014   -8.1739 O   0  0  0  0  0  0  0  0  0  0  0  0
   57.6613   -5.0981  -10.5253 C   0  0  0  0  0  0  0  0  0  0  0  0
   59.0460   -5.1197  -10.5356 O   0  0  0  0  0  0  0  0  0  0  0  0
   57.8514   -5.1310   -7.2839 H   0  0  0  0  0  0  0  0  0  0  0  0
   59.4398   -4.7570   -9.7028 H   0  0  0  0  0  0  0  0  0  0  0  0
   58.0012   -4.6699  -13.1048 O   0  0  0  0  0  0  0  0  0  0  0  0
   57.0398   -3.8211  -12.5845 C   0  0  0  0  0  0  0  0  0  0  0  0
   58.8066   -4.7569  -12.5362 H   0  0  0  0  0  0  0  0  0  0  0  0
   50.6941   -4.6861   -6.3932 N   0  0  0  0  0  0  0  0  0  0  0  0
   50.3243   -5.6100   -6.7779 H   0  0  0  0  0  0  0  0  0  0  0  0
   50.2573   -4.2925   -5.0968 C   0  0  0  0  0  0  0  0  0  0  0  0
   50.8489   -5.1911   -4.0788 C   0  0  0  0  0  0  0  0  0  0  0  0
   50.1620   -5.4487   -2.9110 C   0  0  0  0  0  0  0  0  0  0  0  0
   50.6778   -6.2764   -1.9428 C   0  0  0  0  0  0  0  0  0  0  0  0
   51.9177   -6.8441   -2.1853 C   0  0  0  0  0  0  0  0  0  0  0  0
   52.6173   -6.5968   -3.3477 C   0  0  0  0  0  0  0  0  0  0  0  0
   54.1848   -7.3191   -3.6457 Cl  0  0  0  0  0  0  0  0  0  0  0  0
   52.0996   -5.7657   -4.3197 C   0  0  0  0  0  0  0  0  0  0  0  0
 19 20  1  0  0  0
 20 10  1  0  0  0
 10 11  1  0  0  0
 11 12  1  0  0  0
 12 13  1  0  0  0
 13 14  1  0  0  0
 13 15  1  0  0  0
 15 16  1  0  0  0
 12  1  1  0  0  0
  1  2  1  0  0  0
  2  3  2  0  0  0
  3  4  1  0  0  0
  4  5  2  0  0  0
  5 22  1  0  0  0
 22 24  1  0  0  0
 24 25  1  0  0  0
 25 26  2  0  0  0
 26 27  1  0  0  0
 27 28  2  0  0  0
 28 29  1  0  0  0
 29 30  1  0  0  0
 29 31  2  0  0  0
  5  6  1  0  0  0
  6  7  2  0  0  0
  7  8  1  0  0  0
  8  9  2  0  0  0
 15 10  1  0  0  0
  9  1  1  0  0  0
  9  4  1  0  0  0
 31 25  1  0  0  0
 19 21  1  0  0  0
 14 17  1  0  0  0
 16 18  1  0  0  0
 22 23  1  0  0  0
M  END
> <minimizedAffinity>
-9.07829

> <CNNscore>
0.3137893975

> <CNNaffinity>
6.2294831276

> <CNN_VS>
1.9547457695

> <CNNaffinity_variance>
0.2402392924

$$$$
[H]OC([H])([H])[C@@]1([H])O[C@@]([H])(n2c([H])nc3c(N([H])[H])nc([H])nc32)[C@]([H])(O[H])[C@]1([H])O[H]


 24 26  0  0  0  0  0  0  0  0999 V2000
   55.3827   -7.7037   -4.7215 C   0  0  0  0  0  0  0  0  0  0  0  0
   54.1952   -7.3900   -5.3819 O   0  0  0  0  0  0  0  0  0  0  0  0
   54.4819   -6.4610   -6.3490 C   0  0  0  0  0  0  0  0  0  0  0  0
   55.7291   -5.7157   -5.9178 C   0  0  0  0  0  0  0  0  0  0  0  0
   56.7388   -6.0149   -6.8410 O   0  0  0  0  0  0  0  0  0  0  0  0
   56.0852   -6.3728   -4.5769 C   0  0  0  0  0  0  0  0  0  0  0  0
   57.4491   -6.4820   -4.4511 O   0  0  0  0  0  0  0  0  0  0  0  0
   56.5417   -5.4950   -7.6529 H   0  0  0  0  0  0  0  0  0  0  0  0
   57.9583   -6.4465   -5.2766 H   0  0  0  0  0  0  0  0  0  0  0  0
   53.4155   -5.5018   -6.5550 N   0  0  0  0  0  0  0  0  0  0  0  0
   52.3497   -5.3939   -5.7471 C   0  0  0  0  0  0  0  0  0  0  0  0
   51.5751   -4.4069   -6.2427 N   0  0  0  0  0  0  0  0  0  0  0  0
   52.1591   -3.9073   -7.3510 C   0  0  0  0  0  0  0  0  0  0  0  0
   51.7858   -2.8946   -8.2297 C   0  0  0  0  0  0  0  0  0  0  0  0
   50.5776   -2.2041   -7.9912 N   0  0  0  0  0  0  0  0  0  0  0  0
   52.5823   -2.5978   -9.2832 N   0  0  0  0  0  0  0  0  0  0  0  0
   53.7180   -3.2995   -9.4449 C   0  0  0  0  0  0  0  0  0  0  0  0
   54.1064   -4.2847   -8.6123 N   0  0  0  0  0  0  0  0  0  0  0  0
   53.3309   -4.6040   -7.5504 C   0  0  0  0  0  0  0  0  0  0  0  0
   49.6800   -2.6461   -8.2421 H   0  0  0  0  0  0  0  0  0  0  0  0
   50.6023   -1.2648   -7.5687 H   0  0  0  0  0  0  0  0  0  0  0  0
   56.2129   -8.8020   -2.8352 O   0  0  0  0  0  0  0  0  0  0  0  0
   55.0233   -8.3131   -3.3974 C   0  0  0  0  0  0  0  0  0  0  0  0
   56.5886   -8.0715   -2.2604 H   0  0  0  0  0  0  0  0  0  0  0  0
 22 23  1  0  0  0
 23  1  1  0  0  0
  1  2  1  0  0  0
  2  3  1  0  0  0
  3  4  1  0  0  0
  4  5  1  0  0  0
  4  6  1  0  0  0
  6  7  1  0  0  0
  3 10  1  0  0  0
 10 11  1  0  0  0
 11 12  2  0  0  0
 12 13  1  0  0  0
 13 14  2  0  0  0
 14 15  1  0  0  0
 14 16  1  0  0  0
 16 17  2  0  0  0
 17 18  1  0  0  0
 18 19  2  0  0  0
  6  1  1  0  0  0
 19 10  1  0  0  0
 19 13  1  0  0  0
 22 24  1  0  0  0
  5  8  1  0  0  0
  7  9  1  0  0  0
 15 20  1  0  0  0
 15 21  1  0  0  0
M  END
> <minimizedAffinity>
-7.36579

> <CNNscore>
0.9064202905

> <CNNaffinity>
5.2507963181

> <CNN_VS>
4.7594285011

> <CNNaffinity_variance>
0.2074919194

$$$$
[H]OC([H])([H])[C@@]1([H])O[C@@]([H])(n2c([H])nc3c(N([H])[H])nc([H])nc32)[C@]([H])(O[H])[C@]1([H])O[H]


 24 26  0  0  0  0  0  0  0  0999 V2000
   52.1359   -7.4351   -1.6831 C   0  0  0  0  0  0  0  0  0  0  0  0
   51.2890   -7.1286   -2.7478 O   0  0  0  0  0  0  0  0  0  0  0  0
   52.0322   -6.4949   -3.7103 C   0  0  0  0  0  0  0  0  0  0  0  0
   53.2152   -5.8416   -3.0243 C   0  0  0  0  0  0  0  0  0  0  0  0
   54.3742   -6.4770   -3.4875 O   0  0  0  0  0  0  0  0  0  0  0  0
   53.0138   -6.2117   -1.5482 C   0  0  0  0  0  0  0  0  0  0  0  0
   54.2265   -6.4682   -0.9552 O   0  0  0  0  0  0  0  0  0  0  0  0
   54.5378   -6.1377   -4.3965 H   0  0  0  0  0  0  0  0  0  0  0  0
   54.9561   -6.6922   -1.5546 H   0  0  0  0  0  0  0  0  0  0  0  0
   51.2910   -5.4771   -4.4276 N   0  0  0  0  0  0  0  0  0  0  0  0
   50.1418   -4.9460   -3.9832 C   0  0  0  0  0  0  0  0  0  0  0  0
   49.7428   -4.0408   -4.9005 N   0  0  0  0  0  0  0  0  0  0  0  0
   50.6407   -4.0126   -5.9064 C   0  0  0  0  0  0  0  0  0  0  0  0
   50.7063   -3.2695   -7.0814 C   0  0  0  0  0  0  0  0  0  0  0  0
   49.6763   -2.3427   -7.3534 N   0  0  0  0  0  0  0  0  0  0  0  0
   51.7463   -3.4507   -7.9285 N   0  0  0  0  0  0  0  0  0  0  0  0
   52.6892   -4.3519   -7.6012 C   0  0  0  0  0  0  0  0  0  0  0  0
   52.6540   -5.0859   -6.4722 N   0  0  0  0  0  0  0  0  0  0  0  0
   51.6267   -4.9267   -5.6060 C   0  0  0  0  0  0  0  0  0  0  0  0
   48.7686   -2.6797   -7.7090 H   0  0  0  0  0  0  0  0  0  0  0  0
   49.8397   -1.3381   -7.1946 H   0  0  0  0  0  0  0  0  0  0  0  0
   49.9701   -7.3089   -0.8186 O   0  0  0  0  0  0  0  0  0  0  0  0
   51.2817   -7.6687   -0.4709 C   0  0  0  0  0  0  0  0  0  0  0  0
   49.5154   -8.1389   -1.1497 H   0  0  0  0  0  0  0  0  0  0  0  0
 22 23  1  0  0  0
 23  1  1  0  0  0
  1  2  1  0  0  0
  2  3  1  0  0  0
  3  4  1  0  0  0
  4  5  1  0  0  0
  4  6  1  0  0  0
  6  7  1  0  0  0
  3 10  1  0  0  0
 10 11  1  0  0  0
 11 12  2  0  0  0
 12 13  1  0  0  0
 13 14  2  0  0  0
 14 15  1  0  0  0
 14 16  1  0  0  0
 16 17  2  0  0  0
 17 18  1  0  0  0
 18 19  2  0  0  0
  6  1  1  0  0  0
 19 10  1  0  0  0
 19 13  1  0  0  0
 22 24  1  0  0  0
  5  8  1  0  0  0
  7  9  1  0  0  0
 15 20  1  0  0  0
 15 21  1  0  0  0
M  END
> <minimizedAffinity>
-6.84957

> <CNNscore>
0.8019286394

> <CNNaffinity>
5.1528506279

> <CNN_VS>
4.1322183609

> <CNNaffinity_variance>
0.2746605277

$$$$
[H]OC([H])([H])[C@@]1([H])O[C@@]([H])(n2c([H])nc3c(N([H])[H])nc([H])nc32)[C@]([H])(O[H])[C@]1([H])O[H]


 24 26  0  0  0  0  0  0  0  0999 V2000
   56.1216   -5.9139   -6.9732 C   0  0  0  0  0  0  0  0  0  0  0  0
   54.7674   -5.6405   -7.1626 O   0  0  0  0  0  0  0  0  0  0  0  0
   54.6290   -5.0051   -8.3698 C   0  0  0  0  0  0  0  0  0  0  0  0
   55.9428   -4.3173   -8.6826 C   0  0  0  0  0  0  0  0  0  0  0  0
   56.4814   -4.9348   -9.8185 O   0  0  0  0  0  0  0  0  0  0  0  0
   56.8208   -4.6705   -7.4740 C   0  0  0  0  0  0  0  0  0  0  0  0
   58.1150   -4.8929   -7.8784 O   0  0  0  0  0  0  0  0  0  0  0  0
   55.9666   -4.6052  -10.5896 H   0  0  0  0  0  0  0  0  0  0  0  0
   58.2380   -5.1101   -8.8162 H   0  0  0  0  0  0  0  0  0  0  0  0
   53.5724   -4.0135   -8.3768 N   0  0  0  0  0  0  0  0  0  0  0  0
   53.5499   -2.9606   -9.2082 C   0  0  0  0  0  0  0  0  0  0  0  0
   52.4298   -2.2614   -8.9319 N   0  0  0  0  0  0  0  0  0  0  0  0
   51.7635   -2.8790   -7.9351 C   0  0  0  0  0  0  0  0  0  0  0  0
   50.5713   -2.5810   -7.2816 C   0  0  0  0  0  0  0  0  0  0  0  0
   49.8555   -1.4287   -7.6733 N   0  0  0  0  0  0  0  0  0  0  0  0
   50.1296   -3.3952   -6.2947 N   0  0  0  0  0  0  0  0  0  0  0  0
   50.8663   -4.4745   -5.9772 C   0  0  0  0  0  0  0  0  0  0  0  0
   52.0235   -4.7896   -6.5907 N   0  0  0  0  0  0  0  0  0  0  0  0
   52.4904   -3.9945   -7.5812 C   0  0  0  0  0  0  0  0  0  0  0  0
   50.1716   -0.4998   -7.3550 H   0  0  0  0  0  0  0  0  0  0  0  0
   49.0238   -1.5249   -8.2735 H   0  0  0  0  0  0  0  0  0  0  0  0
   57.6277   -6.6913   -5.3666 O   0  0  0  0  0  0  0  0  0  0  0  0
   56.3410   -6.1480   -5.5067 C   0  0  0  0  0  0  0  0  0  0  0  0
   58.2558   -5.9247   -5.2149 H   0  0  0  0  0  0  0  0  0  0  0  0
 22 23  1  0  0  0
 23  1  1  0  0  0
  1  2  1  0  0  0
  2  3  1  0  0  0
  3  4  1  0  0  0
  4  5  1  0  0  0
  4  6  1  0  0  0
  6  7  1  0  0  0
  3 10  1  0  0  0
 10 11  1  0  0  0
 11 12  2  0  0  0
 12 13  1  0  0  0
 13 14  2  0  0  0
 14 15  1  0  0  0
 14 16  1  0  0  0
 16 17  2  0  0  0
 17 18  1  0  0  0
 18 19  2  0  0  0
  6  1  1  0  0  0
 19 10  1  0  0  0
 19 13  1  0  0  0
 22 24  1  0  0  0
  5  8  1  0  0  0
  7  9  1  0  0  0
 15 20  1  0  0  0
 15 21  1  0  0  0
M  END
> <minimizedAffinity>
-7.84445

> <CNNscore>
0.7533085346

> <CNNaffinity>
5.1081590652

> <CNN_VS>
3.8480198383

> <CNNaffinity_variance>
0.2783849835

$$$$
[H]OC([H])([H])[C@@]1([H])O[C@@]([H])(n2c([H])nc3c(N([H])[H])nc([H])nc32)[C@]([H])(O[H])[C@]1([H])O[H]


 24 26  0  0  0  0  0  0  0  0999 V2000
   52.1488   -7.1755   -2.1212 C   0  0  0  0  0  0  0  0  0  0  0  0
   51.6153   -6.9823   -3.3951 O   0  0  0  0  0  0  0  0  0  0  0  0
   52.5817   -6.4001   -4.1744 C   0  0  0  0  0  0  0  0  0  0  0  0
   53.5287   -5.6547   -3.2554 C   0  0  0  0  0  0  0  0  0  0  0  0
   54.7774   -6.2838   -3.3374 O   0  0  0  0  0  0  0  0  0  0  0  0
   52.9428   -5.9156   -1.8607 C   0  0  0  0  0  0  0  0  0  0  0  0
   53.9547   -6.0829   -0.9463 O   0  0  0  0  0  0  0  0  0  0  0  0
   55.1749   -6.0108   -4.1951 H   0  0  0  0  0  0  0  0  0  0  0  0
   54.8213   -6.3275   -1.3083 H   0  0  0  0  0  0  0  0  0  0  0  0
   52.0478   -5.4675   -5.1465 N   0  0  0  0  0  0  0  0  0  0  0  0
   52.5932   -5.2642   -6.3555 C   0  0  0  0  0  0  0  0  0  0  0  0
   51.8373   -4.3381   -6.9806 N   0  0  0  0  0  0  0  0  0  0  0  0
   50.8299   -3.9711   -6.1624 C   0  0  0  0  0  0  0  0  0  0  0  0
   49.7846   -3.0648   -6.3139 C   0  0  0  0  0  0  0  0  0  0  0  0
   49.6821   -2.3475   -7.5257 N   0  0  0  0  0  0  0  0  0  0  0  0
   48.8984   -2.8934   -5.3052 N   0  0  0  0  0  0  0  0  0  0  0  0
   49.0613   -3.6126   -4.1807 C   0  0  0  0  0  0  0  0  0  0  0  0
   50.0620   -4.4969   -4.0039 N   0  0  0  0  0  0  0  0  0  0  0  0
   50.9634   -4.6897   -4.9945 C   0  0  0  0  0  0  0  0  0  0  0  0
   50.3026   -1.5409   -7.6944 H   0  0  0  0  0  0  0  0  0  0  0  0
   48.9889   -2.6353   -8.2312 H   0  0  0  0  0  0  0  0  0  0  0  0
   50.0317   -6.3943   -1.5199 O   0  0  0  0  0  0  0  0  0  0  0  0
   51.0033   -7.3434   -1.1655 C   0  0  0  0  0  0  0  0  0  0  0  0
   49.4042   -6.8411   -2.1614 H   0  0  0  0  0  0  0  0  0  0  0  0
 22 23  1  0  0  0
 23  1  1  0  0  0
  1  2  1  0  0  0
  2  3  1  0  0  0
  3  4  1  0  0  0
  4  5  1  0  0  0
  4  6  1  0  0  0
  6  7  1  0  0  0
  3 10  1  0  0  0
 10 11  1  0  0  0
 11 12  2  0  0  0
 12 13  1  0  0  0
 13 14  2  0  0  0
 14 15  1  0  0  0
 14 16  1  0  0  0
 16 17  2  0  0  0
 17 18  1  0  0  0
 18 19  2  0  0  0
  6  1  1  0  0  0
 19 10  1  0  0  0
 19 13  1  0  0  0
 22 24  1  0  0  0
  5  8  1  0  0  0
  7  9  1  0  0  0
 15 20  1  0  0  0
 15 21  1  0  0  0
M  END
> <minimizedAffinity>
-6.75296

> <CNNscore>
0.6758133769

> <CNNaffinity>
4.9580297470

> <CNN_VS>
3.3507027626

> <CNNaffinity_variance>
0.2458015233

$$$$
[H]OC([H])([H])[C@@]1([H])O[C@@]([H])(n2c([H])nc3c(N([H])[H])nc([H])nc32)[C@]([H])(O[H])[C@]1([H])O[H]


 24 26  0  0  0  0  0  0  0  0999 V2000
   55.4559   -7.5622   -4.9298 C   0  0  0  0  0  0  0  0  0  0  0  0
   54.4362   -7.2054   -5.8117 O   0  0  0  0  0  0  0  0  0  0  0  0
   54.9497   -6.3053   -6.7098 C   0  0  0  0  0  0  0  0  0  0  0  0
   56.1226   -5.6105   -6.0476 C   0  0  0  0  0  0  0  0  0  0  0  0
   57.2777   -5.9692   -6.7537 O   0  0  0  0  0  0  0  0  0  0  0  0
   56.1787   -6.2623   -4.6589 C   0  0  0  0  0  0  0  0  0  0  0  0
   57.4852   -6.4311   -4.2681 O   0  0  0  0  0  0  0  0  0  0  0  0
   57.2677   -5.4535   -7.5917 H   0  0  0  0  0  0  0  0  0  0  0  0
   58.1467   -6.4313   -4.9782 H   0  0  0  0  0  0  0  0  0  0  0  0
   53.9905   -5.3022   -7.1265 N   0  0  0  0  0  0  0  0  0  0  0  0
   54.1762   -4.4919   -8.1796 C   0  0  0  0  0  0  0  0  0  0  0  0
   53.0891   -3.6976   -8.2650 N   0  0  0  0  0  0  0  0  0  0  0  0
   52.2360   -4.0155   -7.2700 C   0  0  0  0  0  0  0  0  0  0  0  0
   50.9899   -3.5115   -6.9093 C   0  0  0  0  0  0  0  0  0  0  0  0
   50.4360   -2.4644   -7.6778 N   0  0  0  0  0  0  0  0  0  0  0  0
   50.3435   -4.0318   -5.8399 N   0  0  0  0  0  0  0  0  0  0  0  0
   50.9347   -5.0278   -5.1567 C   0  0  0  0  0  0  0  0  0  0  0  0
   52.1392   -5.5369   -5.4807 N   0  0  0  0  0  0  0  0  0  0  0  0
   52.8093   -5.0370   -6.5447 C   0  0  0  0  0  0  0  0  0  0  0  0
   50.7776   -1.5001   -7.5461 H   0  0  0  0  0  0  0  0  0  0  0  0
   49.6957   -2.6720   -8.3633 H   0  0  0  0  0  0  0  0  0  0  0  0
   55.8281   -8.7899   -2.9784 O   0  0  0  0  0  0  0  0  0  0  0  0
   54.8166   -8.1344   -3.6979 C   0  0  0  0  0  0  0  0  0  0  0  0
   56.2041   -8.1259   -2.3281 H   0  0  0  0  0  0  0  0  0  0  0  0
 22 23  1  0  0  0
 23  1  1  0  0  0
  1  2  1  0  0  0
  2  3  1  0  0  0
  3  4  1  0  0  0
  4  5  1  0  0  0
  4  6  1  0  0  0
  6  7  1  0  0  0
  3 10  1  0  0  0
 10 11  1  0  0  0
 11 12  2  0  0  0
 12 13  1  0  0  0
 13 14  2  0  0  0
 14 15  1  0  0  0
 14 16  1  0  0  0
 16 17  2  0  0  0
 17 18  1  0  0  0
 18 19  2  0  0  0
  6  1  1  0  0  0
 19 10  1  0  0  0
 19 13  1  0  0  0
 22 24  1  0  0  0
  5  8  1  0  0  0
  7  9  1  0  0  0
 15 20  1  0  0  0
 15 21  1  0  0  0
M  END
> <minimizedAffinity>
-7.19198

> <CNNscore>
0.6294138432

> <CNNaffinity>
4.9333276749

> <CNN_VS>
3.1051046848

> <CNNaffinity_variance>
0.2236274779

$$$$
[H]OC([H])([H])[C@@]1([H])O[C@@]([H])(n2c([H])nc3c(N([H])[H])nc([H])nc32)[C@]([H])(O[H])[C@]1([H])O[H]


 24 26  0  0  0  0  0  0  0  0999 V2000
   50.5975   -5.6941   -3.6456 C   0  0  0  0  0  0  0  0  0  0  0  0
   50.8764   -5.7088   -5.0119 O   0  0  0  0  0  0  0  0  0  0  0  0
   52.1596   -6.1631   -5.1766 C   0  0  0  0  0  0  0  0  0  0  0  0
   52.9232   -5.8613   -3.9027 C   0  0  0  0  0  0  0  0  0  0  0  0
   53.2692   -7.0864   -3.3189 O   0  0  0  0  0  0  0  0  0  0  0  0
   51.8720   -5.1791   -3.0162 C   0  0  0  0  0  0  0  0  0  0  0  0
   52.0339   -5.5658   -1.7076 O   0  0  0  0  0  0  0  0  0  0  0  0
   54.0176   -7.4484   -3.8453 H   0  0  0  0  0  0  0  0  0  0  0  0
   52.5211   -6.3928   -1.5639 H   0  0  0  0  0  0  0  0  0  0  0  0
   52.8484   -5.5410   -6.2894 N   0  0  0  0  0  0  0  0  0  0  0  0
   54.0263   -5.9720   -6.7661 C   0  0  0  0  0  0  0  0  0  0  0  0
   54.3597   -5.1609   -7.7912 N   0  0  0  0  0  0  0  0  0  0  0  0
   53.3928   -4.2336   -7.9474 C   0  0  0  0  0  0  0  0  0  0  0  0
   53.2446   -3.1783   -8.8426 C   0  0  0  0  0  0  0  0  0  0  0  0
   54.2529   -2.9636   -9.8074 N   0  0  0  0  0  0  0  0  0  0  0  0
   52.1473   -2.3893   -8.7685 N   0  0  0  0  0  0  0  0  0  0  0  0
   51.2297   -2.6560   -7.8223 C   0  0  0  0  0  0  0  0  0  0  0  0
   51.3445   -3.6692   -6.9420 N   0  0  0  0  0  0  0  0  0  0  0  0
   52.4304   -4.4750   -6.9916 C   0  0  0  0  0  0  0  0  0  0  0  0
   55.1332   -2.5027   -9.5305 H   0  0  0  0  0  0  0  0  0  0  0  0
   54.1013   -3.2688  -10.7796 H   0  0  0  0  0  0  0  0  0  0  0  0
   49.4552   -3.8289   -4.4643 O   0  0  0  0  0  0  0  0  0  0  0  0
   49.4325   -4.7731   -3.4258 C   0  0  0  0  0  0  0  0  0  0  0  0
   48.8773   -4.1878   -5.2008 H   0  0  0  0  0  0  0  0  0  0  0  0
 22 23  1  0  0  0
 23  1  1  0  0  0
  1  2  1  0  0  0
  2  3  1  0  0  0
  3  4  1  0  0  0
  4  5  1  0  0  0
  4  6  1  0  0  0
  6  7  1  0  0  0
  3 10  1  0  0  0
 10 11  1  0  0  0
 11 12  2  0  0  0
 12 13  1  0  0  0
 13 14  2  0  0  0
 14 15  1  0  0  0
 14 16  1  0  0  0
 16 17  2  0  0  0
 17 18  1  0  0  0
 18 19  2  0  0  0
  6  1  1  0  0  0
 19 10  1  0  0  0
 19 13  1  0  0  0
 22 24  1  0  0  0
  5  8  1  0  0  0
  7  9  1  0  0  0
 15 20  1  0  0  0
 15 21  1  0  0  0
M  END
> <minimizedAffinity>
-7.11089

> <CNNscore>
0.5976132751

> <CNNaffinity>
4.9630637169

> <CNN_VS>
2.9659926891

> <CNNaffinity_variance>
0.2829450965

$$$$
[H]OC([H])([H])[C@@]1([H])O[C@@]([H])(n2c([H])nc3c(N([H])[H])nc([H])nc32)[C@]([H])(O[H])[C@]1([H])O[H]


 24 26  0  0  0  0  0  0  0  0999 V2000
   55.8714   -5.8228   -3.1256 C   0  0  0  0  0  0  0  0  0  0  0  0
   55.5435   -5.0475   -4.2374 O   0  0  0  0  0  0  0  0  0  0  0  0
   55.2204   -5.8966   -5.2646 C   0  0  0  0  0  0  0  0  0  0  0  0
   55.9260   -7.2142   -5.0136 C   0  0  0  0  0  0  0  0  0  0  0  0
   54.9406   -8.1825   -4.7837 O   0  0  0  0  0  0  0  0  0  0  0  0
   56.6793   -6.9646   -3.6995 C   0  0  0  0  0  0  0  0  0  0  0  0
   56.6605   -8.0968   -2.9211 O   0  0  0  0  0  0  0  0  0  0  0  0
   54.5496   -8.4007   -5.6599 H   0  0  0  0  0  0  0  0  0  0  0  0
   55.9623   -8.7407   -3.1207 H   0  0  0  0  0  0  0  0  0  0  0  0
   55.6175   -5.3976   -6.5658 N   0  0  0  0  0  0  0  0  0  0  0  0
   56.8713   -5.4735   -7.0374 C   0  0  0  0  0  0  0  0  0  0  0  0
   56.8673   -4.9150   -8.2654 N   0  0  0  0  0  0  0  0  0  0  0  0
   55.6175   -4.4963   -8.5512 C   0  0  0  0  0  0  0  0  0  0  0  0
   55.0747   -3.8645   -9.6663 C   0  0  0  0  0  0  0  0  0  0  0  0
   55.9235   -3.5667  -10.7545 N   0  0  0  0  0  0  0  0  0  0  0  0
   53.7575   -3.5530   -9.6816 N   0  0  0  0  0  0  0  0  0  0  0  0
   53.0124   -3.8683   -8.6074 C   0  0  0  0  0  0  0  0  0  0  0  0
   53.5082   -4.4794   -7.5140 N   0  0  0  0  0  0  0  0  0  0  0  0
   54.8213   -4.8032   -7.4696 C   0  0  0  0  0  0  0  0  0  0  0  0
   56.5567   -2.7542  -10.6993 H   0  0  0  0  0  0  0  0  0  0  0  0
   55.9036   -4.1628  -11.5944 H   0  0  0  0  0  0  0  0  0  0  0  0
   56.7164   -3.6785   -2.7489 O   0  0  0  0  0  0  0  0  0  0  0  0
   56.6706   -4.9646   -2.1883 C   0  0  0  0  0  0  0  0  0  0  0  0
   55.9443   -3.1642   -2.3686 H   0  0  0  0  0  0  0  0  0  0  0  0
 22 23  1  0  0  0
 23  1  1  0  0  0
  1  2  1  0  0  0
  2  3  1  0  0  0
  3  4  1  0  0  0
  4  5  1  0  0  0
  4  6  1  0  0  0
  6  7  1  0  0  0
  3 10  1  0  0  0
 10 11  1  0  0  0
 11 12  2  0  0  0
 12 13  1  0  0  0
 13 14  2  0  0  0
 14 15  1  0  0  0
 14 16  1  0  0  0
 16 17  2  0  0  0
 17 18  1  0  0  0
 18 19  2  0  0  0
  6  1  1  0  0  0
 19 10  1  0  0  0
 19 13  1  0  0  0
 22 24  1  0  0  0
  5  8  1  0  0  0
  7  9  1  0  0  0
 15 20  1  0  0  0
 15 21  1  0  0  0
M  END
> <minimizedAffinity>
-6.84788

> <CNNscore>
0.5752489567

> <CNNaffinity>
4.4314565659

> <CNN_VS>
2.5491907597

> <CNNaffinity_variance>
0.4169387817

$$$$
[H]OC([H])([H])[C@@]1([H])O[C@@]([H])(n2c([H])nc3c(N([H])[H])nc([H])nc32)[C@]([H])(O[H])[C@]1([H])O[H]


 24 26  0  0  0  0  0  0  0  0999 V2000
   53.0567   -6.1517   -2.5888 C   0  0  0  0  0  0  0  0  0  0  0  0
   52.6893   -5.7791   -3.8814 O   0  0  0  0  0  0  0  0  0  0  0  0
   53.4897   -6.4608   -4.7616 C   0  0  0  0  0  0  0  0  0  0  0  0
   54.7783   -6.8054   -4.0420 C   0  0  0  0  0  0  0  0  0  0  0  0
   54.8397   -8.2004   -3.9331 O   0  0  0  0  0  0  0  0  0  0  0  0
   54.5663   -6.2165   -2.6403 C   0  0  0  0  0  0  0  0  0  0  0  0
   55.1135   -7.0458   -1.6912 O   0  0  0  0  0  0  0  0  0  0  0  0
   55.0836   -8.5423   -4.8230 H   0  0  0  0  0  0  0  0  0  0  0  0
   55.2539   -7.9679   -1.9595 H   0  0  0  0  0  0  0  0  0  0  0  0
   53.8116   -5.6982   -5.9510 N   0  0  0  0  0  0  0  0  0  0  0  0
   55.0029   -5.7524   -6.5661 C   0  0  0  0  0  0  0  0  0  0  0  0
   54.9400   -4.9199   -7.6257 N   0  0  0  0  0  0  0  0  0  0  0  0
   53.7162   -4.3544   -7.6655 C   0  0  0  0  0  0  0  0  0  0  0  0
   53.1371   -3.4379   -8.5383 C   0  0  0  0  0  0  0  0  0  0  0  0
   53.9066   -2.9540   -9.6186 N   0  0  0  0  0  0  0  0  0  0  0  0
   51.8611   -3.0354   -8.3332 N   0  0  0  0  0  0  0  0  0  0  0  0
   51.1914   -3.5406   -7.2822 C   0  0  0  0  0  0  0  0  0  0  0  0
   51.7239   -4.4284   -6.4202 N   0  0  0  0  0  0  0  0  0  0  0  0
   52.9973   -4.8494   -6.5995 C   0  0  0  0  0  0  0  0  0  0  0  0
   54.6189   -2.2268   -9.4515 H   0  0  0  0  0  0  0  0  0  0  0  0
   53.7506   -3.3308  -10.5646 H   0  0  0  0  0  0  0  0  0  0  0  0
   53.6856   -4.4482   -1.1202 O   0  0  0  0  0  0  0  0  0  0  0  0
   52.5566   -5.0945   -1.6476 C   0  0  0  0  0  0  0  0  0  0  0  0
   53.8767   -3.6610   -1.7109 H   0  0  0  0  0  0  0  0  0  0  0  0
 22 23  1  0  0  0
 23  1  1  0  0  0
  1  2  1  0  0  0
  2  3  1  0  0  0
  3  4  1  0  0  0
  4  5  1  0  0  0
  4  6  1  0  0  0
  6  7  1  0  0  0
  3 10  1  0  0  0
 10 11  1  0  0  0
 11 12  2  0  0  0
 12 13  1  0  0  0
 13 14  2  0  0  0
 14 15  1  0  0  0
 14 16  1  0  0  0
 16 17  2  0  0  0
 17 18  1  0  0  0
 18 19  2  0  0  0
  6  1  1  0  0  0
 19 10  1  0  0  0
 19 13  1  0  0  0
 22 24  1  0  0  0
  5  8  1  0  0  0
  7  9  1  0  0  0
 15 20  1  0  0  0
 15 21  1  0  0  0
M  END
> <minimizedAffinity>
-6.76236

> <CNNscore>
0.4631761611

> <CNNaffinity>
4.6411643028

> <CNN_VS>
2.1496765614

> <CNNaffinity_variance>
0.4729799330

$$$$
[H]OC([H])([H])[C@@]1([H])O[C@@]([H])(n2c([H])nc3c(N([H])[H])nc([H])nc32)[C@]([H])(O[H])[C@]1([H])O[H]


 24 26  0  0  0  0  0  0  0  0999 V2000
   54.9374   -4.4292   -8.0421 C   0  0  0  0  0  0  0  0  0  0  0  0
   53.6784   -4.6586   -7.4881 O   0  0  0  0  0  0  0  0  0  0  0  0
   52.7480   -4.0371   -8.2808 C   0  0  0  0  0  0  0  0  0  0  0  0
   53.4411   -2.8963   -8.9984 C   0  0  0  0  0  0  0  0  0  0  0  0
   53.4359   -3.1944  -10.3668 O   0  0  0  0  0  0  0  0  0  0  0  0
   54.8855   -2.9850   -8.4863 C   0  0  0  0  0  0  0  0  0  0  0  0
   55.7655   -2.6896   -9.4994 O   0  0  0  0  0  0  0  0  0  0  0  0
   52.5218   -3.0243  -10.6891 H   0  0  0  0  0  0  0  0  0  0  0  0
   55.4233   -2.7820  -10.4028 H   0  0  0  0  0  0  0  0  0  0  0  0
   51.6259   -3.5035   -7.5352 N   0  0  0  0  0  0  0  0  0  0  0  0
   50.9896   -2.3691   -7.8648 C   0  0  0  0  0  0  0  0  0  0  0  0
   50.0090   -2.1865   -6.9565 N   0  0  0  0  0  0  0  0  0  0  0  0
   50.0390   -3.2027   -6.0703 C   0  0  0  0  0  0  0  0  0  0  0  0
   49.2602   -3.4941   -4.9542 C   0  0  0  0  0  0  0  0  0  0  0  0
   48.2149   -2.6096   -4.6099 N   0  0  0  0  0  0  0  0  0  0  0  0
   49.5204   -4.6084   -4.2312 N   0  0  0  0  0  0  0  0  0  0  0  0
   50.5330   -5.4027   -4.6212 C   0  0  0  0  0  0  0  0  0  0  0  0
   51.3043   -5.1480   -5.6959 N   0  0  0  0  0  0  0  0  0  0  0  0
   51.0682   -4.0416   -6.4381 C   0  0  0  0  0  0  0  0  0  0  0  0
   48.4345   -1.7240   -4.1287 H   0  0  0  0  0  0  0  0  0  0  0  0
   47.2418   -2.8557   -4.8418 H   0  0  0  0  0  0  0  0  0  0  0  0
   56.4752   -3.4110   -6.6096 O   0  0  0  0  0  0  0  0  0  0  0  0
   55.9601   -4.6663   -6.9691 C   0  0  0  0  0  0  0  0  0  0  0  0
   55.9243   -3.0758   -5.8419 H   0  0  0  0  0  0  0  0  0  0  0  0
 22 23  1  0  0  0
 23  1  1  0  0  0
  1  2  1  0  0  0
  2  3  1  0  0  0
  3  4  1  0  0  0
  4  5  1  0  0  0
  4  6  1  0  0  0
  6  7  1  0  0  0
  3 10  1  0  0  0
 10 11  1  0  0  0
 11 12  2  0  0  0
 12 13  1  0  0  0
 13 14  2  0  0  0
 14 15  1  0  0  0
 14 16  1  0  0  0
 16 17  2  0  0  0
 17 18  1  0  0  0
 18 19  2  0  0  0
  6  1  1  0  0  0
 19 10  1  0  0  0
 19 13  1  0  0  0
 22 24  1  0  0  0
  5  8  1  0  0  0
  7  9  1  0  0  0
 15 20  1  0  0  0
 15 21  1  0  0  0
M  END
> <minimizedAffinity>
-7.78225

> <CNNscore>
0.4094707668

> <CNNaffinity>
4.9072790146

> <CNN_VS>
2.0093872547

> <CNNaffinity_variance>
0.2819552422

$$$$
[H]OC([H])([H])[C@@]1([H])O[C@@]([H])(n2c([H])nc3c(N([H])[H])nc(-c4c([H])c([H])c([H])c([H])c4[H])c([H])c32)[C@]([H])(O[H])[C@]1([H])O[H]


 30 33  0  0  0  0  0  0  0  0999 V2000
   51.5051   -5.5821   -4.5428 N   0  0  0  0  0  0  0  0  0  0  0  0
   50.2782   -5.0926   -4.4571 C   0  0  0  0  0  0  0  0  0  0  0  0
   50.0487   -4.2556   -5.4844 N   0  0  0  0  0  0  0  0  0  0  0  0
   51.1723   -4.2097   -6.2544 C   0  0  0  0  0  0  0  0  0  0  0  0
   51.5022   -3.5333   -7.4083 C   0  0  0  0  0  0  0  0  0  0  0  0
   50.5443   -2.6676   -8.0181 N   0  0  0  0  0  0  0  0  0  0  0  0
   52.7287   -3.7144   -7.9252 N   0  0  0  0  0  0  0  0  0  0  0  0
   53.6614   -4.5205   -7.3829 C   0  0  0  0  0  0  0  0  0  0  0  0
   53.3236   -5.1877   -6.2369 C   0  0  0  0  0  0  0  0  0  0  0  0
   52.0677   -5.0450   -5.6479 C   0  0  0  0  0  0  0  0  0  0  0  0
   49.5139   -2.8326   -7.9400 H   0  0  0  0  0  0  0  0  0  0  0  0
   50.9282   -1.8554   -8.5499 H   0  0  0  0  0  0  0  0  0  0  0  0
   52.0265   -7.8771   -1.9409 C   0  0  0  0  0  0  0  0  0  0  0  0
   51.2999   -7.3068   -2.9525 O   0  0  0  0  0  0  0  0  0  0  0  0
   52.1795   -6.5058   -3.6736 C   0  0  0  0  0  0  0  0  0  0  0  0
   52.8761   -5.7732   -2.5169 C   0  0  0  0  0  0  0  0  0  0  0  0
   53.9808   -5.0782   -2.9337 O   0  0  0  0  0  0  0  0  0  0  0  0
   53.2248   -6.9917   -1.6729 C   0  0  0  0  0  0  0  0  0  0  0  0
   54.3233   -7.5943   -2.2631 O   0  0  0  0  0  0  0  0  0  0  0  0
   53.9587   -4.1860   -2.4855 H   0  0  0  0  0  0  0  0  0  0  0  0
   54.2303   -8.5850   -2.2732 H   0  0  0  0  0  0  0  0  0  0  0  0
   50.0898   -7.2429   -0.7746 O   0  0  0  0  0  0  0  0  0  0  0  0
   51.2533   -7.9934   -0.6465 C   0  0  0  0  0  0  0  0  0  0  0  0
   50.2151   -6.4373   -1.3346 H   0  0  0  0  0  0  0  0  0  0  0  0
   54.9750   -4.6575   -8.0162 C   0  0  0  0  0  0  0  0  0  0  0  0
   56.0830   -5.1169   -7.3440 C   0  0  0  0  0  0  0  0  0  0  0  0
   57.3101   -5.2235   -8.0105 C   0  0  0  0  0  0  0  0  0  0  0  0
   57.4692   -4.8862   -9.3289 C   0  0  0  0  0  0  0  0  0  0  0  0
   56.3606   -4.4250  -10.0073 C   0  0  0  0  0  0  0  0  0  0  0  0
   55.1502   -4.3175   -9.3581 C   0  0  0  0  0  0  0  0  0  0  0  0
 22 23  1  0  0  0
 23 13  1  0  0  0
 13 14  1  0  0  0
 14 15  1  0  0  0
 15 16  1  0  0  0
 16 17  1  0  0  0
 16 18  1  0  0  0
 18 19  1  0  0  0
 15  1  1  0  0  0
  1  2  1  0  0  0
  2  3  2  0  0  0
  3  4  1  0  0  0
  4  5  2  0  0  0
  5  6  1  0  0  0
  5  7  1  0  0  0
  7  8  2  0  0  0
  8  9  1  0  0  0
  9 10  2  0  0  0
  8 25  1  0  0  0
 25 26  2  0  0  0
 26 27  1  0  0  0
 27 28  2  0  0  0
 28 29  1  0  0  0
 29 30  2  0  0  0
 18 13  1  0  0  0
 10  1  1  0  0  0
 30 25  1  0  0  0
 10  4  1  0  0  0
 22 24  1  0  0  0
 17 20  1  0  0  0
 19 21  1  0  0  0
  6 11  1  0  0  0
  6 12  1  0  0  0
M  END
> <minimizedAffinity>
-9.44107

> <CNNscore>
0.7050494552

> <CNNaffinity>
6.3364744186

> <CNN_VS>
4.4675278664

> <CNNaffinity_variance>
0.1203164458

$$$$
[H]OC([H])([H])[C@@]1([H])O[C@@]([H])(n2c([H])nc3c(N([H])[H])nc(-c4c([H])c([H])c([H])c([H])c4[H])c([H])c32)[C@]([H])(O[H])[C@]1([H])O[H]


 30 33  0  0  0  0  0  0  0  0999 V2000
   51.6017   -5.3382   -4.1052 N   0  0  0  0  0  0  0  0  0  0  0  0
   50.3299   -5.0539   -3.8727 C   0  0  0  0  0  0  0  0  0  0  0  0
   49.7951   -4.4460   -4.9465 N   0  0  0  0  0  0  0  0  0  0  0  0
   50.7629   -4.3387   -5.9000 C   0  0  0  0  0  0  0  0  0  0  0  0
   50.7830   -3.8140   -7.1736 C   0  0  0  0  0  0  0  0  0  0  0  0
   49.5975   -3.2322   -7.7168 N   0  0  0  0  0  0  0  0  0  0  0  0
   51.9316   -3.8689   -7.8680 N   0  0  0  0  0  0  0  0  0  0  0  0
   53.0712   -4.4079   -7.3943 C   0  0  0  0  0  0  0  0  0  0  0  0
   53.0405   -4.9264   -6.1282 C   0  0  0  0  0  0  0  0  0  0  0  0
   51.8815   -4.9020   -5.3532 C   0  0  0  0  0  0  0  0  0  0  0  0
   48.6409   -3.5525   -7.4386 H   0  0  0  0  0  0  0  0  0  0  0  0
   49.7357   -2.4650   -8.4111 H   0  0  0  0  0  0  0  0  0  0  0  0
   54.4328   -7.1588   -3.1157 C   0  0  0  0  0  0  0  0  0  0  0  0
   53.7573   -6.2649   -3.9038 O   0  0  0  0  0  0  0  0  0  0  0  0
   52.5615   -5.9816   -3.2518 C   0  0  0  0  0  0  0  0  0  0  0  0
   52.1160   -7.4064   -2.8893 C   0  0  0  0  0  0  0  0  0  0  0  0
   51.0625   -7.4133   -2.0135 O   0  0  0  0  0  0  0  0  0  0  0  0
   53.4171   -7.8814   -2.2567 C   0  0  0  0  0  0  0  0  0  0  0  0
   53.4794   -7.3265   -0.9893 O   0  0  0  0  0  0  0  0  0  0  0  0
   50.4144   -8.1034   -2.3315 H   0  0  0  0  0  0  0  0  0  0  0  0
   54.3956   -6.9975   -0.7832 H   0  0  0  0  0  0  0  0  0  0  0  0
   55.0485   -7.8931   -5.2594 O   0  0  0  0  0  0  0  0  0  0  0  0
   55.1780   -8.2072   -3.9111 C   0  0  0  0  0  0  0  0  0  0  0  0
   54.1763   -7.4783   -5.4725 H   0  0  0  0  0  0  0  0  0  0  0  0
   54.2786   -4.4244   -8.2232 C   0  0  0  0  0  0  0  0  0  0  0  0
   54.2803   -4.0503   -9.5463 C   0  0  0  0  0  0  0  0  0  0  0  0
   55.4714   -4.0897  -10.2820 C   0  0  0  0  0  0  0  0  0  0  0  0
   56.6641   -4.4912   -9.7403 C   0  0  0  0  0  0  0  0  0  0  0  0
   56.6674   -4.8674   -8.4135 C   0  0  0  0  0  0  0  0  0  0  0  0
   55.4994   -4.8310   -7.6835 C   0  0  0  0  0  0  0  0  0  0  0  0
 22 23  1  0  0  0
 23 13  1  0  0  0
 13 14  1  0  0  0
 14 15  1  0  0  0
 15 16  1  0  0  0
 16 17  1  0  0  0
 16 18  1  0  0  0
 18 19  1  0  0  0
 15  1  1  0  0  0
  1  2  1  0  0  0
  2  3  2  0  0  0
  3  4  1  0  0  0
  4  5  2  0  0  0
  5  6  1  0  0  0
  5  7  1  0  0  0
  7  8  2  0  0  0
  8  9  1  0  0  0
  9 10  2  0  0  0
  8 25  1  0  0  0
 25 26  2  0  0  0
 26 27  1  0  0  0
 27 28  2  0  0  0
 28 29  1  0  0  0
 29 30  2  0  0  0
 18 13  1  0  0  0
 10  1  1  0  0  0
 30 25  1  0  0  0
 10  4  1  0  0  0
 22 24  1  0  0  0
 17 20  1  0  0  0
 19 21  1  0  0  0
  6 11  1  0  0  0
  6 12  1  0  0  0
M  END
> <minimizedAffinity>
-8.72053

> <CNNscore>
0.6598104835

> <CNNaffinity>
6.1268959045

> <CNN_VS>
4.0425901413

> <CNNaffinity_variance>
0.0900336653

$$$$
[H]OC([H])([H])[C@@]1([H])O[C@@]([H])(n2c([H])nc3c(N([H])[H])nc(-c4c([H])c([H])c([H])c([H])c4[H])c([H])c32)[C@]([H])(O[H])[C@]1([H])O[H]


 30 33  0  0  0  0  0  0  0  0999 V2000
   56.5626   -5.5338   -6.8650 N   0  0  0  0  0  0  0  0  0  0  0  0
   57.5001   -5.5133   -7.7993 C   0  0  0  0  0  0  0  0  0  0  0  0
   57.0195   -4.9356   -8.9146 N   0  0  0  0  0  0  0  0  0  0  0  0
   55.7261   -4.5742   -8.6824 C   0  0  0  0  0  0  0  0  0  0  0  0
   54.7630   -3.9577   -9.4506 C   0  0  0  0  0  0  0  0  0  0  0  0
   55.0694   -3.5695  -10.7901 N   0  0  0  0  0  0  0  0  0  0  0  0
   53.5546   -3.7410   -8.9054 N   0  0  0  0  0  0  0  0  0  0  0  0
   53.2238   -4.0907   -7.6476 C   0  0  0  0  0  0  0  0  0  0  0  0
   54.1877   -4.7024   -6.8931 C   0  0  0  0  0  0  0  0  0  0  0  0
   55.4626   -4.9571   -7.3973 C   0  0  0  0  0  0  0  0  0  0  0  0
   56.0375   -3.3052  -11.0867 H   0  0  0  0  0  0  0  0  0  0  0  0
   54.2715   -3.5629  -11.4632 H   0  0  0  0  0  0  0  0  0  0  0  0
   55.7977   -7.4721   -4.0424 C   0  0  0  0  0  0  0  0  0  0  0  0
   55.9648   -7.2666   -5.3864 O   0  0  0  0  0  0  0  0  0  0  0  0
   56.6234   -6.0491   -5.5255 C   0  0  0  0  0  0  0  0  0  0  0  0
   55.7925   -5.1894   -4.5609 C   0  0  0  0  0  0  0  0  0  0  0  0
   56.3771   -3.9751   -4.3140 O   0  0  0  0  0  0  0  0  0  0  0  0
   55.8307   -6.1223   -3.3581 C   0  0  0  0  0  0  0  0  0  0  0  0
   57.0800   -5.9850   -2.7764 O   0  0  0  0  0  0  0  0  0  0  0  0
   55.6570   -3.2842   -4.3510 H   0  0  0  0  0  0  0  0  0  0  0  0
   57.4504   -6.8672   -2.5027 H   0  0  0  0  0  0  0  0  0  0  0  0
   54.5184   -8.5028   -2.3647 O   0  0  0  0  0  0  0  0  0  0  0  0
   54.4742   -8.1189   -3.7004 C   0  0  0  0  0  0  0  0  0  0  0  0
   55.4220   -8.7854   -2.0786 H   0  0  0  0  0  0  0  0  0  0  0  0
   51.8796   -3.8149   -7.1356 C   0  0  0  0  0  0  0  0  0  0  0  0
   51.2702   -4.5948   -6.1812 C   0  0  0  0  0  0  0  0  0  0  0  0
   49.9818   -4.2742   -5.7353 C   0  0  0  0  0  0  0  0  0  0  0  0
   49.2792   -3.1986   -6.2112 C   0  0  0  0  0  0  0  0  0  0  0  0
   49.8863   -2.4133   -7.1686 C   0  0  0  0  0  0  0  0  0  0  0  0
   51.1536   -2.7226   -7.6119 C   0  0  0  0  0  0  0  0  0  0  0  0
 22 23  1  0  0  0
 23 13  1  0  0  0
 13 14  1  0  0  0
 14 15  1  0  0  0
 15 16  1  0  0  0
 16 17  1  0  0  0
 16 18  1  0  0  0
 18 19  1  0  0  0
 15  1  1  0  0  0
  1  2  1  0  0  0
  2  3  2  0  0  0
  3  4  1  0  0  0
  4  5  2  0  0  0
  5  6  1  0  0  0
  5  7  1  0  0  0
  7  8  2  0  0  0
  8  9  1  0  0  0
  9 10  2  0  0  0
  8 25  1  0  0  0
 25 26  2  0  0  0
 26 27  1  0  0  0
 27 28  2  0  0  0
 28 29  1  0  0  0
 29 30  2  0  0  0
 18 13  1  0  0  0
 10  1  1  0  0  0
 30 25  1  0  0  0
 10  4  1  0  0  0
 22 24  1  0  0  0
 17 20  1  0  0  0
 19 21  1  0  0  0
  6 11  1  0  0  0
  6 12  1  0  0  0
M  END
> <minimizedAffinity>
-9.52396

> <CNNscore>
0.6462219954

> <CNNaffinity>
6.0351552963

> <CNN_VS>
3.9000501633

> <CNNaffinity_variance>
0.0566872656

$$$$
[H]OC([H])([H])[C@@]1([H])O[C@@]([H])(n2c([H])nc3c(N([H])[H])nc(-c4c([H])c([H])c([H])c([H])c4[H])c([H])c32)[C@]([H])(O[H])[C@]1([H])O[H]


 30 33  0  0  0  0  0  0  0  0999 V2000
   53.5696   -3.9018   -8.6940 N   0  0  0  0  0  0  0  0  0  0  0  0
   53.1379   -3.0519   -9.6126 C   0  0  0  0  0  0  0  0  0  0  0  0
   51.9378   -2.5630   -9.2530 N   0  0  0  0  0  0  0  0  0  0  0  0
   51.5911   -3.1226   -8.0596 C   0  0  0  0  0  0  0  0  0  0  0  0
   50.4939   -2.9934   -7.2366 C   0  0  0  0  0  0  0  0  0  0  0  0
   49.4309   -2.1159   -7.6091 N   0  0  0  0  0  0  0  0  0  0  0  0
   50.4627   -3.7066   -6.0988 N   0  0  0  0  0  0  0  0  0  0  0  0
   51.4425   -4.5448   -5.7099 C   0  0  0  0  0  0  0  0  0  0  0  0
   52.5279   -4.6657   -6.5345 C   0  0  0  0  0  0  0  0  0  0  0  0
   52.6241   -3.9544   -7.7300 C   0  0  0  0  0  0  0  0  0  0  0  0
   49.5917   -1.2587   -8.1873 H   0  0  0  0  0  0  0  0  0  0  0  0
   48.4777   -2.3759   -7.2721 H   0  0  0  0  0  0  0  0  0  0  0  0
   56.2269   -5.8067   -7.4215 C   0  0  0  0  0  0  0  0  0  0  0  0
   54.9146   -5.4211   -7.4989 O   0  0  0  0  0  0  0  0  0  0  0  0
   54.7899   -4.6587   -8.6558 C   0  0  0  0  0  0  0  0  0  0  0  0
   56.0099   -3.7387   -8.4969 C   0  0  0  0  0  0  0  0  0  0  0  0
   56.2745   -3.0269   -9.6373 O   0  0  0  0  0  0  0  0  0  0  0  0
   57.0507   -4.8132   -8.2127 C   0  0  0  0  0  0  0  0  0  0  0  0
   57.3626   -5.4078   -9.4240 O   0  0  0  0  0  0  0  0  0  0  0  0
   56.4795   -2.0889   -9.3627 H   0  0  0  0  0  0  0  0  0  0  0  0
   57.4382   -6.3959   -9.3330 H   0  0  0  0  0  0  0  0  0  0  0  0
   56.3825   -7.0086   -5.4104 O   0  0  0  0  0  0  0  0  0  0  0  0
   56.7622   -5.8115   -6.0073 C   0  0  0  0  0  0  0  0  0  0  0  0
   55.5014   -7.3292   -5.7251 H   0  0  0  0  0  0  0  0  0  0  0  0
   51.3236   -5.2833   -4.4507 C   0  0  0  0  0  0  0  0  0  0  0  0
   50.2729   -5.1105   -3.5808 C   0  0  0  0  0  0  0  0  0  0  0  0
   50.2208   -5.8498   -2.3925 C   0  0  0  0  0  0  0  0  0  0  0  0
   51.1847   -6.7583   -2.0420 C   0  0  0  0  0  0  0  0  0  0  0  0
   52.2405   -6.9351   -2.9114 C   0  0  0  0  0  0  0  0  0  0  0  0
   52.2984   -6.2113   -4.0823 C   0  0  0  0  0  0  0  0  0  0  0  0
 22 23  1  0  0  0
 23 13  1  0  0  0
 13 14  1  0  0  0
 14 15  1  0  0  0
 15 16  1  0  0  0
 16 17  1  0  0  0
 16 18  1  0  0  0
 18 19  1  0  0  0
 15  1  1  0  0  0
  1  2  1  0  0  0
  2  3  2  0  0  0
  3  4  1  0  0  0
  4  5  2  0  0  0
  5  6  1  0  0  0
  5  7  1  0  0  0
  7  8  2  0  0  0
  8  9  1  0  0  0
  9 10  2  0  0  0
  8 25  1  0  0  0
 25 26  2  0  0  0
 26 27  1  0  0  0
 27 28  2  0  0  0
 28 29  1  0  0  0
 29 30  2  0  0  0
 18 13  1  0  0  0
 10  1  1  0  0  0
 30 25  1  0  0  0
 10  4  1  0  0  0
 22 24  1  0  0  0
 17 20  1  0  0  0
 19 21  1  0  0  0
  6 11  1  0  0  0
  6 12  1  0  0  0
M  END
> <minimizedAffinity>
-8.55636

> <CNNscore>
0.6148331165

> <CNNaffinity>
6.1549453735

> <CNN_VS>
3.7842643261

> <CNNaffinity_variance>
0.1345335990

$$$$
[H]OC([H])([H])[C@@]1([H])O[C@@]([H])(n2c([H])nc3c(N([H])[H])nc(-c4c([H])c([H])c([H])c([H])c4[H])c([H])c32)[C@]([H])(O[H])[C@]1([H])O[H]


 30 33  0  0  0  0  0  0  0  0999 V2000
   53.0617   -5.5148   -5.5460 N   0  0  0  0  0  0  0  0  0  0  0  0
   51.8432   -5.0562   -5.3068 C   0  0  0  0  0  0  0  0  0  0  0  0
   51.4549   -4.2492   -6.3101 N   0  0  0  0  0  0  0  0  0  0  0  0
   52.4645   -4.1911   -7.2238 C   0  0  0  0  0  0  0  0  0  0  0  0
   52.6183   -3.5327   -8.4241 C   0  0  0  0  0  0  0  0  0  0  0  0
   51.5629   -2.7069   -8.9171 N   0  0  0  0  0  0  0  0  0  0  0  0
   53.7700   -3.6931   -9.0965 N   0  0  0  0  0  0  0  0  0  0  0  0
   54.7897   -4.4616   -8.6681 C   0  0  0  0  0  0  0  0  0  0  0  0
   54.6267   -5.1112   -7.4748 C   0  0  0  0  0  0  0  0  0  0  0  0
   53.4566   -4.9884   -6.7263 C   0  0  0  0  0  0  0  0  0  0  0  0
   50.5573   -2.8973   -8.6992 H   0  0  0  0  0  0  0  0  0  0  0  0
   51.8488   -1.8972   -9.5108 H   0  0  0  0  0  0  0  0  0  0  0  0
   54.0023   -7.7068   -2.9731 C   0  0  0  0  0  0  0  0  0  0  0  0
   53.1230   -7.1802   -3.8821 O   0  0  0  0  0  0  0  0  0  0  0  0
   53.8723   -6.4002   -4.7571 C   0  0  0  0  0  0  0  0  0  0  0  0
   54.7269   -5.6196   -3.7470 C   0  0  0  0  0  0  0  0  0  0  0  0
   55.7463   -4.9325   -4.3519 O   0  0  0  0  0  0  0  0  0  0  0  0
   55.2157   -6.8030   -2.9228 C   0  0  0  0  0  0  0  0  0  0  0  0
   56.2195   -7.4191   -3.6513 O   0  0  0  0  0  0  0  0  0  0  0  0
   55.7809   -4.0244   -3.9379 H   0  0  0  0  0  0  0  0  0  0  0  0
   56.1391   -8.4102   -3.6116 H   0  0  0  0  0  0  0  0  0  0  0  0
   54.3309   -8.4981   -0.7870 O   0  0  0  0  0  0  0  0  0  0  0  0
   53.4362   -7.7802   -1.5728 C   0  0  0  0  0  0  0  0  0  0  0  0
   54.7934   -9.2124   -1.2911 H   0  0  0  0  0  0  0  0  0  0  0  0
   56.0109   -4.5782   -9.4682 C   0  0  0  0  0  0  0  0  0  0  0  0
   57.1872   -5.0821   -8.9652 C   0  0  0  0  0  0  0  0  0  0  0  0
   58.3190   -5.1659   -9.7858 C   0  0  0  0  0  0  0  0  0  0  0  0
   58.3165   -4.7625  -11.0951 C   0  0  0  0  0  0  0  0  0  0  0  0
   57.1391   -4.2563  -11.6042 C   0  0  0  0  0  0  0  0  0  0  0  0
   56.0216   -4.1710  -10.8028 C   0  0  0  0  0  0  0  0  0  0  0  0
 22 23  1  0  0  0
 23 13  1  0  0  0
 13 14  1  0  0  0
 14 15  1  0  0  0
 15 16  1  0  0  0
 16 17  1  0  0  0
 16 18  1  0  0  0
 18 19  1  0  0  0
 15  1  1  0  0  0
  1  2  1  0  0  0
  2  3  2  0  0  0
  3  4  1  0  0  0
  4  5  2  0  0  0
  5  6  1  0  0  0
  5  7  1  0  0  0
  7  8  2  0  0  0
  8  9  1  0  0  0
  9 10  2  0  0  0
  8 25  1  0  0  0
 25 26  2  0  0  0
 26 27  1  0  0  0
 27 28  2  0  0  0
 28 29  1  0  0  0
 29 30  2  0  0  0
 18 13  1  0  0  0
 10  1  1  0  0  0
 30 25  1  0  0  0
 10  4  1  0  0  0
 22 24  1  0  0  0
 17 20  1  0  0  0
 19 21  1  0  0  0
  6 11  1  0  0  0
  6 12  1  0  0  0
M  END
> <minimizedAffinity>
-8.93362

> <CNNscore>
0.5701525211

> <CNNaffinity>
6.0786309242

> <CNN_VS>
3.4657466412

> <CNNaffinity_variance>
0.2151403874

$$$$
[H]OC([H])([H])[C@@]1([H])O[C@@]([H])(n2c([H])nc3c(N([H])[H])nc(-c4c([H])c([H])c([H])c([H])c4[H])c([H])c32)[C@]([H])(O[H])[C@]1([H])O[H]


 30 33  0  0  0  0  0  0  0  0999 V2000
   56.4130   -5.4579   -6.8299 N   0  0  0  0  0  0  0  0  0  0  0  0
   57.3887   -5.5331   -7.7213 C   0  0  0  0  0  0  0  0  0  0  0  0
   56.9884   -4.9851   -8.8824 N   0  0  0  0  0  0  0  0  0  0  0  0
   55.7086   -4.5438   -8.7251 C   0  0  0  0  0  0  0  0  0  0  0  0
   54.8145   -3.9144   -9.5631 C   0  0  0  0  0  0  0  0  0  0  0  0
   55.1982   -3.6085  -10.9040 N   0  0  0  0  0  0  0  0  0  0  0  0
   53.5982   -3.6069   -9.0830 N   0  0  0  0  0  0  0  0  0  0  0  0
   53.1958   -3.8770   -7.8265 C   0  0  0  0  0  0  0  0  0  0  0  0
   54.0915   -4.5024   -7.0022 C   0  0  0  0  0  0  0  0  0  0  0  0
   55.3703   -4.8493   -7.4368 C   0  0  0  0  0  0  0  0  0  0  0  0
   56.1912   -3.4112  -11.1690 H   0  0  0  0  0  0  0  0  0  0  0  0
   54.4310   -3.5916  -11.6117 H   0  0  0  0  0  0  0  0  0  0  0  0
   57.4936   -6.8812   -3.8106 C   0  0  0  0  0  0  0  0  0  0  0  0
   57.6603   -6.1466   -4.9548 O   0  0  0  0  0  0  0  0  0  0  0  0
   56.3885   -5.9103   -5.4667 C   0  0  0  0  0  0  0  0  0  0  0  0
   55.7960   -7.3236   -5.3605 C   0  0  0  0  0  0  0  0  0  0  0  0
   54.4435   -7.3366   -5.5793 O   0  0  0  0  0  0  0  0  0  0  0  0
   56.1653   -7.6005   -3.9095 C   0  0  0  0  0  0  0  0  0  0  0  0
   55.2616   -6.9084   -3.1206 O   0  0  0  0  0  0  0  0  0  0  0  0
   54.2444   -8.1159   -6.1712 H   0  0  0  0  0  0  0  0  0  0  0  0
   55.7146   -6.4728   -2.3490 H   0  0  0  0  0  0  0  0  0  0  0  0
   59.4956   -7.7859   -4.6398 O   0  0  0  0  0  0  0  0  0  0  0  0
   58.5630   -7.9332   -3.6190 C   0  0  0  0  0  0  0  0  0  0  0  0
   59.0873   -7.4855   -5.4891 H   0  0  0  0  0  0  0  0  0  0  0  0
   51.8488   -3.5048   -7.3883 C   0  0  0  0  0  0  0  0  0  0  0  0
   51.1896   -2.3955   -7.8631 C   0  0  0  0  0  0  0  0  0  0  0  0
   49.9015   -2.0972   -7.4013 C   0  0  0  0  0  0  0  0  0  0  0  0
   49.2473   -2.8707   -6.4789 C   0  0  0  0  0  0  0  0  0  0  0  0
   49.9044   -3.9845   -5.9997 C   0  0  0  0  0  0  0  0  0  0  0  0
   51.1717   -4.2842   -6.4496 C   0  0  0  0  0  0  0  0  0  0  0  0
 22 23  1  0  0  0
 23 13  1  0  0  0
 13 14  1  0  0  0
 14 15  1  0  0  0
 15 16  1  0  0  0
 16 17  1  0  0  0
 16 18  1  0  0  0
 18 19  1  0  0  0
 15  1  1  0  0  0
  1  2  1  0  0  0
  2  3  2  0  0  0
  3  4  1  0  0  0
  4  5  2  0  0  0
  5  6  1  0  0  0
  5  7  1  0  0  0
  7  8  2  0  0  0
  8  9  1  0  0  0
  9 10  2  0  0  0
  8 25  1  0  0  0
 25 26  2  0  0  0
 26 27  1  0  0  0
 27 28  2  0  0  0
 28 29  1  0  0  0
 29 30  2  0  0  0
 18 13  1  0  0  0
 10  1  1  0  0  0
 30 25  1  0  0  0
 10  4  1  0  0  0
 22 24  1  0  0  0
 17 20  1  0  0  0
 19 21  1  0  0  0
  6 11  1  0  0  0
  6 12  1  0  0  0
M  END
> <minimizedAffinity>
-9.36320

> <CNNscore>
0.4850947559

> <CNNaffinity>
5.7362775803

> <CNN_VS>
2.7826380730

> <CNNaffinity_variance>
0.0923686847

$$$$
[H]OC([H])([H])[C@@]1([H])O[C@@]([H])(n2c([H])nc3c(N([H])[H])nc(-c4c([H])c([H])c([H])c([H])c4[H])c([H])c32)[C@]([H])(O[H])[C@]1([H])O[H]


 30 33  0  0  0  0  0  0  0  0999 V2000
   54.4584   -4.0614   -9.6782 N   0  0  0  0  0  0  0  0  0  0  0  0
   53.7469   -3.1797  -10.3628 C   0  0  0  0  0  0  0  0  0  0  0  0
   52.6428   -2.8485   -9.6701 N   0  0  0  0  0  0  0  0  0  0  0  0
   52.6506   -3.5459   -8.4992 C   0  0  0  0  0  0  0  0  0  0  0  0
   51.7894   -3.6028   -7.4255 C   0  0  0  0  0  0  0  0  0  0  0  0
   50.6041   -2.8066   -7.4276 N   0  0  0  0  0  0  0  0  0  0  0  0
   52.0991   -4.4156   -6.4018 N   0  0  0  0  0  0  0  0  0  0  0  0
   53.2053   -5.1826   -6.3592 C   0  0  0  0  0  0  0  0  0  0  0  0
   54.0541   -5.1186   -7.4307 C   0  0  0  0  0  0  0  0  0  0  0  0
   53.7926   -4.2959   -8.5258 C   0  0  0  0  0  0  0  0  0  0  0  0
   50.5495   -1.8887   -7.9271 H   0  0  0  0  0  0  0  0  0  0  0  0
   49.7887   -3.1906   -6.9010 H   0  0  0  0  0  0  0  0  0  0  0  0
   57.6653   -5.4382   -9.3185 C   0  0  0  0  0  0  0  0  0  0  0  0
   56.3814   -5.1851   -8.9133 O   0  0  0  0  0  0  0  0  0  0  0  0
   55.7022   -4.6921  -10.0227 C   0  0  0  0  0  0  0  0  0  0  0  0
   56.7276   -3.6629  -10.5223 C   0  0  0  0  0  0  0  0  0  0  0  0
   56.4169   -3.1841  -11.7678 O   0  0  0  0  0  0  0  0  0  0  0  0
   57.9530   -4.5668  -10.5224 C   0  0  0  0  0  0  0  0  0  0  0  0
   57.8642   -5.3723  -11.6455 O   0  0  0  0  0  0  0  0  0  0  0  0
   56.5609   -2.1960  -11.7521 H   0  0  0  0  0  0  0  0  0  0  0  0
   58.1240   -6.3105  -11.4391 H   0  0  0  0  0  0  0  0  0  0  0  0
   59.6814   -6.0874   -8.3049 O   0  0  0  0  0  0  0  0  0  0  0  0
   58.6973   -5.1059   -8.2643 C   0  0  0  0  0  0  0  0  0  0  0  0
   59.3222   -6.9782   -8.5407 H   0  0  0  0  0  0  0  0  0  0  0  0
   53.4629   -6.0403   -5.2003 C   0  0  0  0  0  0  0  0  0  0  0  0
   52.6562   -6.0520   -4.0868 C   0  0  0  0  0  0  0  0  0  0  0  0
   52.9604   -6.8975   -3.0126 C   0  0  0  0  0  0  0  0  0  0  0  0
   54.0455   -7.7339   -3.0120 C   0  0  0  0  0  0  0  0  0  0  0  0
   54.8576   -7.7257   -4.1266 C   0  0  0  0  0  0  0  0  0  0  0  0
   54.5645   -6.8967   -5.1872 C   0  0  0  0  0  0  0  0  0  0  0  0
 22 23  1  0  0  0
 23 13  1  0  0  0
 13 14  1  0  0  0
 14 15  1  0  0  0
 15 16  1  0  0  0
 16 17  1  0  0  0
 16 18  1  0  0  0
 18 19  1  0  0  0
 15  1  1  0  0  0
  1  2  1  0  0  0
  2  3  2  0  0  0
  3  4  1  0  0  0
  4  5  2  0  0  0
  5  6  1  0  0  0
  5  7  1  0  0  0
  7  8  2  0  0  0
  8  9  1  0  0  0
  9 10  2  0  0  0
  8 25  1  0  0  0
 25 26  2  0  0  0
 26 27  1  0  0  0
 27 28  2  0  0  0
 28 29  1  0  0  0
 29 30  2  0  0  0
 18 13  1  0  0  0
 10  1  1  0  0  0
 30 25  1  0  0  0
 10  4  1  0  0  0
 22 24  1  0  0  0
 17 20  1  0  0  0
 19 21  1  0  0  0
  6 11  1  0  0  0
  6 12  1  0  0  0
M  END
> <minimizedAffinity>
-8.01277

> <CNNscore>
0.4731254578

> <CNNaffinity>
5.8808469772

> <CNN_VS>
2.7823784351

> <CNNaffinity_variance>
0.1004663557

$$$$
[H]OC([H])([H])[C@@]1([H])O[C@@]([H])(n2c([H])nc3c(N([H])[H])nc(-c4c([H])c([H])c([H])c([H])c4[H])c([H])c32)[C@]([H])(O[H])[C@]1([H])O[H]


 30 33  0  0  0  0  0  0  0  0999 V2000
   53.7977   -3.5176   -8.3798 N   0  0  0  0  0  0  0  0  0  0  0  0
   53.2753   -2.8066   -9.3667 C   0  0  0  0  0  0  0  0  0  0  0  0
   51.9596   -2.6279   -9.1528 N   0  0  0  0  0  0  0  0  0  0  0  0
   51.6308   -3.2487   -7.9849 C   0  0  0  0  0  0  0  0  0  0  0  0
   50.4511   -3.3903   -7.2876 C   0  0  0  0  0  0  0  0  0  0  0  0
   49.2533   -2.8056   -7.7996 N   0  0  0  0  0  0  0  0  0  0  0  0
   50.4699   -4.0821   -6.1364 N   0  0  0  0  0  0  0  0  0  0  0  0
   51.5761   -4.6493   -5.6182 C   0  0  0  0  0  0  0  0  0  0  0  0
   52.7425   -4.5027   -6.3187 C   0  0  0  0  0  0  0  0  0  0  0  0
   52.7931   -3.7969   -7.5202 C   0  0  0  0  0  0  0  0  0  0  0  0
   49.2619   -1.9387   -8.3856 H   0  0  0  0  0  0  0  0  0  0  0  0
   48.3618   -3.2915   -7.5571 H   0  0  0  0  0  0  0  0  0  0  0  0
   57.1112   -4.4003   -9.1220 C   0  0  0  0  0  0  0  0  0  0  0  0
   55.9720   -3.6548   -9.2740 O   0  0  0  0  0  0  0  0  0  0  0  0
   55.1544   -3.9486   -8.1874 C   0  0  0  0  0  0  0  0  0  0  0  0
   55.2563   -5.4814   -8.1890 C   0  0  0  0  0  0  0  0  0  0  0  0
   54.7275   -6.0374   -7.0539 O   0  0  0  0  0  0  0  0  0  0  0  0
   56.7735   -5.5935   -8.2539 C   0  0  0  0  0  0  0  0  0  0  0  0
   57.2555   -5.3286   -6.9828 O   0  0  0  0  0  0  0  0  0  0  0  0
   54.1849   -6.8277   -7.3335 H   0  0  0  0  0  0  0  0  0  0  0  0
   58.0655   -4.7514   -7.0163 H   0  0  0  0  0  0  0  0  0  0  0  0
   58.5742   -5.9310  -10.1370 O   0  0  0  0  0  0  0  0  0  0  0  0
   57.6515   -4.9328  -10.4302 C   0  0  0  0  0  0  0  0  0  0  0  0
   59.0746   -5.7547   -9.3024 H   0  0  0  0  0  0  0  0  0  0  0  0
   51.5032   -5.3867   -4.3548 C   0  0  0  0  0  0  0  0  0  0  0  0
   50.4434   -5.2751   -3.4859 C   0  0  0  0  0  0  0  0  0  0  0  0
   50.4373   -6.0095   -2.2935 C   0  0  0  0  0  0  0  0  0  0  0  0
   51.4560   -6.8539   -1.9379 C   0  0  0  0  0  0  0  0  0  0  0  0
   52.5212   -6.9691   -2.8062 C   0  0  0  0  0  0  0  0  0  0  0  0
   52.5340   -6.2497   -3.9812 C   0  0  0  0  0  0  0  0  0  0  0  0
 22 23  1  0  0  0
 23 13  1  0  0  0
 13 14  1  0  0  0
 14 15  1  0  0  0
 15 16  1  0  0  0
 16 17  1  0  0  0
 16 18  1  0  0  0
 18 19  1  0  0  0
 15  1  1  0  0  0
  1  2  1  0  0  0
  2  3  2  0  0  0
  3  4  1  0  0  0
  4  5  2  0  0  0
  5  6  1  0  0  0
  5  7  1  0  0  0
  7  8  2  0  0  0
  8  9  1  0  0  0
  9 10  2  0  0  0
  8 25  1  0  0  0
 25 26  2  0  0  0
 26 27  1  0  0  0
 27 28  2  0  0  0
 28 29  1  0  0  0
 29 30  2  0  0  0
 18 13  1  0  0  0
 10  1  1  0  0  0
 30 25  1  0  0  0
 10  4  1  0  0  0
 22 24  1  0  0  0
 17 20  1  0  0  0
 19 21  1  0  0  0
  6 11  1  0  0  0
  6 12  1  0  0  0
M  END
> <minimizedAffinity>
-7.73873

> <CNNscore>
0.4391464293

> <CNNaffinity>
6.1113462448

> <CNN_VS>
2.6837759018

> <CNNaffinity_variance>
0.1043123007

$$$$
[H]OC([H])([H])[C@@]1([H])O[C@@]([H])(n2c([H])nc3c(N([H])[H])nc(-c4c([H])c([H])c([H])c([H])c4[H])c([H])c32)[C@]([H])(O[H])[C@]1([H])O[H]


 30 33  0  0  0  0  0  0  0  0999 V2000
   55.8831   -5.3329   -6.5482 N   0  0  0  0  0  0  0  0  0  0  0  0
   54.7323   -4.7667   -6.8760 C   0  0  0  0  0  0  0  0  0  0  0  0
   54.7809   -4.3407   -8.1507 N   0  0  0  0  0  0  0  0  0  0  0  0
   56.0096   -4.6469   -8.6546 C   0  0  0  0  0  0  0  0  0  0  0  0
   56.6050   -4.4521   -9.8816 C   0  0  0  0  0  0  0  0  0  0  0  0
   55.8776   -3.8025  -10.9246 N   0  0  0  0  0  0  0  0  0  0  0  0
   57.8644   -4.8858  -10.0554 N   0  0  0  0  0  0  0  0  0  0  0  0
   58.5856   -5.5025   -9.0998 C   0  0  0  0  0  0  0  0  0  0  0  0
   57.9849   -5.6910   -7.8847 C   0  0  0  0  0  0  0  0  0  0  0  0
   56.6803   -5.2655   -7.6373 C   0  0  0  0  0  0  0  0  0  0  0  0
   54.8354   -3.8613  -10.9982 H   0  0  0  0  0  0  0  0  0  0  0  0
   56.4438   -3.2617  -11.6151 H   0  0  0  0  0  0  0  0  0  0  0  0
   55.9946   -7.5716   -3.8491 C   0  0  0  0  0  0  0  0  0  0  0  0
   55.8614   -7.2443   -5.1727 O   0  0  0  0  0  0  0  0  0  0  0  0
   56.2840   -5.9252   -5.3024 C   0  0  0  0  0  0  0  0  0  0  0  0
   55.5354   -5.2922   -4.1196 C   0  0  0  0  0  0  0  0  0  0  0  0
   55.9623   -4.0167   -3.8587 O   0  0  0  0  0  0  0  0  0  0  0  0
   55.9521   -6.2889   -3.0465 C   0  0  0  0  0  0  0  0  0  0  0  0
   57.2546   -5.9819   -2.6899 O   0  0  0  0  0  0  0  0  0  0  0  0
   55.1509   -3.4585   -3.6930 H   0  0  0  0  0  0  0  0  0  0  0  0
   57.8032   -6.8049   -2.5805 H   0  0  0  0  0  0  0  0  0  0  0  0
   54.7320   -8.2219   -1.9793 O   0  0  0  0  0  0  0  0  0  0  0  0
   54.8799   -8.4585   -3.3415 C   0  0  0  0  0  0  0  0  0  0  0  0
   55.5894   -8.0122   -1.5332 H   0  0  0  0  0  0  0  0  0  0  0  0
   59.9545   -5.9424   -9.3785 C   0  0  0  0  0  0  0  0  0  0  0  0
   60.4872   -5.9654  -10.6459 C   0  0  0  0  0  0  0  0  0  0  0  0
   61.8047   -6.3980  -10.8423 C   0  0  0  0  0  0  0  0  0  0  0  0
   62.6107   -6.8096   -9.8136 C   0  0  0  0  0  0  0  0  0  0  0  0
   62.0808   -6.7883   -8.5406 C   0  0  0  0  0  0  0  0  0  0  0  0
   60.7854   -6.3639   -8.3399 C   0  0  0  0  0  0  0  0  0  0  0  0
 22 23  1  0  0  0
 23 13  1  0  0  0
 13 14  1  0  0  0
 14 15  1  0  0  0
 15 16  1  0  0  0
 16 17  1  0  0  0
 16 18  1  0  0  0
 18 19  1  0  0  0
 15  1  1  0  0  0
  1  2  1  0  0  0
  2  3  2  0  0  0
  3  4  1  0  0  0
  4  5  2  0  0  0
  5  6  1  0  0  0
  5  7  1  0  0  0
  7  8  2  0  0  0
  8  9  1  0  0  0
  9 10  2  0  0  0
  8 25  1  0  0  0
 25 26  2  0  0  0
 26 27  1  0  0  0
 27 28  2  0  0  0
 28 29  1  0  0  0
 29 30  2  0  0  0
 18 13  1  0  0  0
 10  1  1  0  0  0
 30 25  1  0  0  0
 10  4  1  0  0  0
 22 24  1  0  0  0
 17 20  1  0  0  0
 19 21  1  0  0  0
  6 11  1  0  0  0
  6 12  1  0  0  0
M  END
> <minimizedAffinity>
-6.29360

> <CNNscore>
0.3580774963

> <CNNaffinity>
4.9282484055

> <CNN_VS>
1.7646948099

> <CNNaffinity_variance>
0.2585734427

$$$$
[H]OC([H])([H])[C@@]1([H])O[C@@]([H])(n2c([H])nc3c(N([H])C([H])([H])c4c([H])c([H])c([H])c([H])c4[H])nc([H])nc32)[C@]([H])(O[H])[C@]1([H])O[H]


 30 33  0  0  0  0  0  0  0  0999 V2000
   56.1306   -4.1642   -9.7592 N   0  0  0  0  0  0  0  0  0  0  0  0
   56.5576   -4.9982   -8.7960 C   0  0  0  0  0  0  0  0  0  0  0  0
   55.5819   -5.1854   -7.8903 N   0  0  0  0  0  0  0  0  0  0  0  0
   54.5140   -4.4679   -8.2683 C   0  0  0  0  0  0  0  0  0  0  0  0
   53.2413   -4.2913   -7.7116 C   0  0  0  0  0  0  0  0  0  0  0  0
   52.3968   -3.4858   -8.3640 N   0  0  0  0  0  0  0  0  0  0  0  0
   52.7614   -2.8682   -9.5155 C   0  0  0  0  0  0  0  0  0  0  0  0
   53.9853   -3.0439  -10.0419 N   0  0  0  0  0  0  0  0  0  0  0  0
   54.8715   -3.8347   -9.4384 C   0  0  0  0  0  0  0  0  0  0  0  0
   56.8439   -3.5445  -13.1371 C   0  0  0  0  0  0  0  0  0  0  0  0
   56.0617   -3.5349  -11.9994 O   0  0  0  0  0  0  0  0  0  0  0  0
   56.9124   -3.7239  -10.9160 C   0  0  0  0  0  0  0  0  0  0  0  0
   57.8134   -4.8298  -11.4253 C   0  0  0  0  0  0  0  0  0  0  0  0
   58.9688   -4.9671  -10.6928 O   0  0  0  0  0  0  0  0  0  0  0  0
   58.0842   -4.3227  -12.8463 C   0  0  0  0  0  0  0  0  0  0  0  0
   59.1484   -3.4282  -12.7710 O   0  0  0  0  0  0  0  0  0  0  0  0
   59.1546   -5.9536  -10.5880 H   0  0  0  0  0  0  0  0  0  0  0  0
   58.8137   -2.5148  -12.5137 H   0  0  0  0  0  0  0  0  0  0  0  0
   56.4149   -5.5044  -14.4370 O   0  0  0  0  0  0  0  0  0  0  0  0
   56.0496   -4.1888  -14.2693 C   0  0  0  0  0  0  0  0  0  0  0  0
   55.7562   -6.1073  -14.0084 H   0  0  0  0  0  0  0  0  0  0  0  0
   52.8984   -4.9630   -6.4936 N   0  0  0  0  0  0  0  0  0  0  0  0
   53.5968   -4.9930   -5.7140 H   0  0  0  0  0  0  0  0  0  0  0  0
   51.5804   -5.5539   -6.4441 C   0  0  0  0  0  0  0  0  0  0  0  0
   50.5988   -4.7438   -5.6942 C   0  0  0  0  0  0  0  0  0  0  0  0
   50.0174   -3.6260   -6.2207 C   0  0  0  0  0  0  0  0  0  0  0  0
   49.0846   -2.8614   -5.5140 C   0  0  0  0  0  0  0  0  0  0  0  0
   48.7601   -3.2767   -4.2405 C   0  0  0  0  0  0  0  0  0  0  0  0
   49.3222   -4.3868   -3.6872 C   0  0  0  0  0  0  0  0  0  0  0  0
   50.2319   -5.1203   -4.3947 C   0  0  0  0  0  0  0  0  0  0  0  0
 19 20  1  0  0  0
 20 10  1  0  0  0
 10 11  1  0  0  0
 11 12  1  0  0  0
 12 13  1  0  0  0
 13 14  1  0  0  0
 13 15  1  0  0  0
 15 16  1  0  0  0
 12  1  1  0  0  0
  1  2  1  0  0  0
  2  3  2  0  0  0
  3  4  1  0  0  0
  4  5  2  0  0  0
  5 22  1  0  0  0
 22 24  1  0  0  0
 24 25  1  0  0  0
 25 26  2  0  0  0
 26 27  1  0  0  0
 27 28  2  0  0  0
 28 29  1  0  0  0
 29 30  2  0  0  0
  5  6  1  0  0  0
  6  7  2  0  0  0
  7  8  1  0  0  0
  8  9  2  0  0  0
 15 10  1  0  0  0
  9  1  1  0  0  0
  9  4  1  0  0  0
 30 25  1  0  0  0
 19 21  1  0  0  0
 14 17  1  0  0  0
 16 18  1  0  0  0
 22 23  1  0  0  0
M  END
> <minimizedAffinity>
-9.32931

> <CNNscore>
0.5037967563

> <CNNaffinity>
5.9094877243

> <CNN_VS>
2.9771807194

> <CNNaffinity_variance>
0.2590391338

$$$$
[H]OC([H])([H])[C@@]1([H])O[C@@]([H])(n2c([H])nc3c(N([H])C([H])([H])c4c([H])c([H])c([H])c([H])c4[H])nc([H])nc32)[C@]([H])(O[H])[C@]1([H])O[H]


 30 33  0  0  0  0  0  0  0  0999 V2000
   53.2188   -4.1455   -8.2331 N   0  0  0  0  0  0  0  0  0  0  0  0
   52.8862   -3.4222   -9.3156 C   0  0  0  0  0  0  0  0  0  0  0  0
   53.9729   -3.2232  -10.0817 N   0  0  0  0  0  0  0  0  0  0  0  0
   55.0181   -3.8216   -9.4924 C   0  0  0  0  0  0  0  0  0  0  0  0
   56.3698   -3.9343   -9.8403 C   0  0  0  0  0  0  0  0  0  0  0  0
   57.1594   -4.6182   -9.0057 N   0  0  0  0  0  0  0  0  0  0  0  0
   56.6677   -5.1772   -7.8715 C   0  0  0  0  0  0  0  0  0  0  0  0
   55.3689   -5.0634   -7.5462 N   0  0  0  0  0  0  0  0  0  0  0  0
   54.5318   -4.3941   -8.3376 C   0  0  0  0  0  0  0  0  0  0  0  0
   50.8583   -6.1617   -6.6004 C   0  0  0  0  0  0  0  0  0  0  0  0
   52.0106   -5.9130   -7.3190 O   0  0  0  0  0  0  0  0  0  0  0  0
   52.3028   -4.5619   -7.1698 C   0  0  0  0  0  0  0  0  0  0  0  0
   50.9355   -3.9336   -7.3430 C   0  0  0  0  0  0  0  0  0  0  0  0
   50.8749   -2.6363   -6.8914 O   0  0  0  0  0  0  0  0  0  0  0  0
   50.0920   -4.8856   -6.4875 C   0  0  0  0  0  0  0  0  0  0  0  0
   50.1780   -4.4445   -5.1697 O   0  0  0  0  0  0  0  0  0  0  0  0
   50.3208   -2.1050   -7.5467 H   0  0  0  0  0  0  0  0  0  0  0  0
   51.0131   -4.8049   -4.7392 H   0  0  0  0  0  0  0  0  0  0  0  0
   50.8203   -7.8801   -8.2620 O   0  0  0  0  0  0  0  0  0  0  0  0
   50.0445   -7.2223   -7.3358 C   0  0  0  0  0  0  0  0  0  0  0  0
   51.1189   -8.7560   -7.9089 H   0  0  0  0  0  0  0  0  0  0  0  0
   56.8464   -3.3281  -11.0477 N   0  0  0  0  0  0  0  0  0  0  0  0
   56.5631   -2.3450  -11.2706 H   0  0  0  0  0  0  0  0  0  0  0  0
   57.7035   -4.1475  -11.8738 C   0  0  0  0  0  0  0  0  0  0  0  0
   57.3046   -4.1711  -13.2959 C   0  0  0  0  0  0  0  0  0  0  0  0
   56.2636   -4.9283  -13.7518 C   0  0  0  0  0  0  0  0  0  0  0  0
   55.8820   -4.9475  -15.0965 C   0  0  0  0  0  0  0  0  0  0  0  0
   56.6025   -4.1625  -15.9706 C   0  0  0  0  0  0  0  0  0  0  0  0
   57.6457   -3.3964  -15.5473 C   0  0  0  0  0  0  0  0  0  0  0  0
   58.0027   -3.3916  -14.2287 C   0  0  0  0  0  0  0  0  0  0  0  0
 19 20  1  0  0  0
 20 10  1  0  0  0
 10 11  1  0  0  0
 11 12  1  0  0  0
 12 13  1  0  0  0
 13 14  1  0  0  0
 13 15  1  0  0  0
 15 16  1  0  0  0
 12  1  1  0  0  0
  1  2  1  0  0  0
  2  3  2  0  0  0
  3  4  1  0  0  0
  4  5  2  0  0  0
  5 22  1  0  0  0
 22 24  1  0  0  0
 24 25  1  0  0  0
 25 26  2  0  0  0
 26 27  1  0  0  0
 27 28  2  0  0  0
 28 29  1  0  0  0
 29 30  2  0  0  0
  5  6  1  0  0  0
  6  7  2  0  0  0
  7  8  1  0  0  0
  8  9  2  0  0  0
 15 10  1  0  0  0
  9  1  1  0  0  0
  9  4  1  0  0  0
 30 25  1  0  0  0
 19 21  1  0  0  0
 14 17  1  0  0  0
 16 18  1  0  0  0
 22 23  1  0  0  0
M  END
> <minimizedAffinity>
-8.28454

> <CNNscore>
0.4483907819

> <CNNaffinity>
5.4193873405

> <CNN_VS>
2.4300034046

> <CNNaffinity_variance>
0.2273891866

$$$$
[H]OC([H])([H])[C@@]1([H])O[C@@]([H])(n2c([H])nc3c(N([H])C([H])([H])c4c([H])c([H])c([H])c([H])c4[H])nc([H])nc32)[C@]([H])(O[H])[C@]1([H])O[H]


 30 33  0  0  0  0  0  0  0  0999 V2000
   52.9634   -5.4520   -6.0305 N   0  0  0  0  0  0  0  0  0  0  0  0
   54.2227   -5.8092   -6.3338 C   0  0  0  0  0  0  0  0  0  0  0  0
   54.6725   -5.0658   -7.3597 N   0  0  0  0  0  0  0  0  0  0  0  0
   53.6981   -4.2200   -7.7248 C   0  0  0  0  0  0  0  0  0  0  0  0
   53.6158   -3.2355   -8.7172 C   0  0  0  0  0  0  0  0  0  0  0  0
   52.4667   -2.5583   -8.8105 N   0  0  0  0  0  0  0  0  0  0  0  0
   51.4279   -2.8171   -7.9773 C   0  0  0  0  0  0  0  0  0  0  0  0
   51.5166   -3.7639   -7.0279 N   0  0  0  0  0  0  0  0  0  0  0  0
   52.6357   -4.4727   -6.8852 C   0  0  0  0  0  0  0  0  0  0  0  0
   50.2531   -5.7404   -3.8229 C   0  0  0  0  0  0  0  0  0  0  0  0
   50.8556   -5.5136   -5.0442 O   0  0  0  0  0  0  0  0  0  0  0  0
   52.1414   -6.0376   -4.9701 C   0  0  0  0  0  0  0  0  0  0  0  0
   52.5858   -5.5621   -3.6024 C   0  0  0  0  0  0  0  0  0  0  0  0
   53.6857   -6.2359   -3.1262 O   0  0  0  0  0  0  0  0  0  0  0  0
   51.3225   -5.8654   -2.7889 C   0  0  0  0  0  0  0  0  0  0  0  0
   51.3923   -7.1998   -2.3978 O   0  0  0  0  0  0  0  0  0  0  0  0
   54.2894   -5.5648   -2.6747 H   0  0  0  0  0  0  0  0  0  0  0  0
   51.0538   -7.7938   -3.1362 H   0  0  0  0  0  0  0  0  0  0  0  0
   49.3727   -3.6279   -4.5138 O   0  0  0  0  0  0  0  0  0  0  0  0
   49.3280   -4.5679   -3.5105 C   0  0  0  0  0  0  0  0  0  0  0  0
   48.5910   -3.7209   -5.1149 H   0  0  0  0  0  0  0  0  0  0  0  0
   54.7373   -2.9954   -9.5756 N   0  0  0  0  0  0  0  0  0  0  0  0
   55.3469   -2.1630   -9.3969 H   0  0  0  0  0  0  0  0  0  0  0  0
   54.9376   -3.9515  -10.6407 C   0  0  0  0  0  0  0  0  0  0  0  0
   56.3605   -4.2203  -10.9320 C   0  0  0  0  0  0  0  0  0  0  0  0
   56.9778   -3.7556  -12.0579 C   0  0  0  0  0  0  0  0  0  0  0  0
   58.3257   -4.0051  -12.3322 C   0  0  0  0  0  0  0  0  0  0  0  0
   59.0314   -4.7511  -11.4130 C   0  0  0  0  0  0  0  0  0  0  0  0
   58.4447   -5.2288  -10.2808 C   0  0  0  0  0  0  0  0  0  0  0  0
   57.1261   -4.9738  -10.0313 C   0  0  0  0  0  0  0  0  0  0  0  0
 19 20  1  0  0  0
 20 10  1  0  0  0
 10 11  1  0  0  0
 11 12  1  0  0  0
 12 13  1  0  0  0
 13 14  1  0  0  0
 13 15  1  0  0  0
 15 16  1  0  0  0
 12  1  1  0  0  0
  1  2  1  0  0  0
  2  3  2  0  0  0
  3  4  1  0  0  0
  4  5  2  0  0  0
  5 22  1  0  0  0
 22 24  1  0  0  0
 24 25  1  0  0  0
 25 26  2  0  0  0
 26 27  1  0  0  0
 27 28  2  0  0  0
 28 29  1  0  0  0
 29 30  2  0  0  0
  5  6  1  0  0  0
  6  7  2  0  0  0
  7  8  1  0  0  0
  8  9  2  0  0  0
 15 10  1  0  0  0
  9  1  1  0  0  0
  9  4  1  0  0  0
 30 25  1  0  0  0
 19 21  1  0  0  0
 14 17  1  0  0  0
 16 18  1  0  0  0
 22 23  1  0  0  0
M  END
> <minimizedAffinity>
-8.25250

> <CNNscore>
0.4281325936

> <CNNaffinity>
5.6740083694

> <CNN_VS>
2.4292278290

> <CNNaffinity_variance>
0.1218033582

$$$$
[H]OC([H])([H])[C@@]1([H])O[C@@]([H])(n2c([H])nc3c(N([H])C([H])([H])c4c([H])c([H])c([H])c([H])c4[H])nc([H])nc32)[C@]([H])(O[H])[C@]1([H])O[H]


 30 33  0  0  0  0  0  0  0  0999 V2000
   54.6689   -4.4678   -8.1198 N   0  0  0  0  0  0  0  0  0  0  0  0
   53.8317   -3.8504   -8.9704 C   0  0  0  0  0  0  0  0  0  0  0  0
   54.4518   -3.6347  -10.1436 N   0  0  0  0  0  0  0  0  0  0  0  0
   55.7002   -4.1157  -10.0539 C   0  0  0  0  0  0  0  0  0  0  0  0
   56.7689   -4.1615  -10.9576 C   0  0  0  0  0  0  0  0  0  0  0  0
   57.9035   -4.7268  -10.5322 N   0  0  0  0  0  0  0  0  0  0  0  0
   58.0101   -5.2331   -9.2781 C   0  0  0  0  0  0  0  0  0  0  0  0
   56.9787   -5.1844   -8.4180 N   0  0  0  0  0  0  0  0  0  0  0  0
   55.8219   -4.6335   -8.7832 C   0  0  0  0  0  0  0  0  0  0  0  0
   55.2511   -5.7308   -4.8998 C   0  0  0  0  0  0  0  0  0  0  0  0
   55.5290   -4.9651   -6.0145 O   0  0  0  0  0  0  0  0  0  0  0  0
   54.3515   -4.8663   -6.7474 C   0  0  0  0  0  0  0  0  0  0  0  0
   53.8377   -6.2901   -6.6919 C   0  0  0  0  0  0  0  0  0  0  0  0
   52.5106   -6.4002   -7.0341 O   0  0  0  0  0  0  0  0  0  0  0  0
   54.0836   -6.6070   -5.2124 C   0  0  0  0  0  0  0  0  0  0  0  0
   52.9849   -6.1344   -4.4996 O   0  0  0  0  0  0  0  0  0  0  0  0
   52.4034   -7.2298   -7.5988 H   0  0  0  0  0  0  0  0  0  0  0  0
   53.0968   -5.1539   -4.3034 H   0  0  0  0  0  0  0  0  0  0  0  0
   57.4045   -6.5134   -5.5820 O   0  0  0  0  0  0  0  0  0  0  0  0
   56.4830   -6.5651   -4.5619 C   0  0  0  0  0  0  0  0  0  0  0  0
   58.1271   -5.8706   -5.3680 H   0  0  0  0  0  0  0  0  0  0  0  0
   56.6125   -3.6146  -12.2724 N   0  0  0  0  0  0  0  0  0  0  0  0
   55.7513   -3.0624  -12.4956 H   0  0  0  0  0  0  0  0  0  0  0  0
   57.6885   -3.8767  -13.2009 C   0  0  0  0  0  0  0  0  0  0  0  0
   57.3533   -3.5451  -14.6009 C   0  0  0  0  0  0  0  0  0  0  0  0
   56.0902   -3.6786  -15.1025 C   0  0  0  0  0  0  0  0  0  0  0  0
   55.7707   -3.3604  -16.4257 C   0  0  0  0  0  0  0  0  0  0  0  0
   56.7899   -2.8973  -17.2294 C   0  0  0  0  0  0  0  0  0  0  0  0
   58.0598   -2.7532  -16.7592 C   0  0  0  0  0  0  0  0  0  0  0  0
   58.3513   -3.0697  -15.4627 C   0  0  0  0  0  0  0  0  0  0  0  0
 19 20  1  0  0  0
 20 10  1  0  0  0
 10 11  1  0  0  0
 11 12  1  0  0  0
 12 13  1  0  0  0
 13 14  1  0  0  0
 13 15  1  0  0  0
 15 16  1  0  0  0
 12  1  1  0  0  0
  1  2  1  0  0  0
  2  3  2  0  0  0
  3  4  1  0  0  0
  4  5  2  0  0  0
  5 22  1  0  0  0
 22 24  1  0  0  0
 24 25  1  0  0  0
 25 26  2  0  0  0
 26 27  1  0  0  0
 27 28  2  0  0  0
 28 29  1  0  0  0
 29 30  2  0  0  0
  5  6  1  0  0  0
  6  7  2  0  0  0
  7  8  1  0  0  0
  8  9  2  0  0  0
 15 10  1  0  0  0
  9  1  1  0  0  0
  9  4  1  0  0  0
 30 25  1  0  0  0
 19 21  1  0  0  0
 14 17  1  0  0  0
 16 18  1  0  0  0
 22 23  1  0  0  0
M  END
> <minimizedAffinity>
-7.71111

> <CNNscore>
0.4230890274

> <CNNaffinity>
5.0727663040

> <CNN_VS>
2.1462316513

> <CNNaffinity_variance>
0.4506284297

$$$$
[H]OC([H])([H])[C@@]1([H])O[C@@]([H])(n2c([H])nc3c(N([H])C([H])([H])c4c([H])c([H])c([H])c([H])c4[H])nc([H])nc32)[C@]([H])(O[H])[C@]1([H])O[H]


 30 33  0  0  0  0  0  0  0  0999 V2000
   54.5396   -4.4785   -7.9059 N   0  0  0  0  0  0  0  0  0  0  0  0
   53.6880   -3.8059   -8.6983 C   0  0  0  0  0  0  0  0  0  0  0  0
   54.2819   -3.5266   -9.8716 N   0  0  0  0  0  0  0  0  0  0  0  0
   55.5277   -4.0214   -9.8406 C   0  0  0  0  0  0  0  0  0  0  0  0
   56.5742   -4.0223  -10.7710 C   0  0  0  0  0  0  0  0  0  0  0  0
   57.7133   -4.6202  -10.4071 N   0  0  0  0  0  0  0  0  0  0  0  0
   57.8452   -5.1999   -9.1876 C   0  0  0  0  0  0  0  0  0  0  0  0
   56.8351   -5.1939   -8.3014 N   0  0  0  0  0  0  0  0  0  0  0  0
   55.6749   -4.6138   -8.6056 C   0  0  0  0  0  0  0  0  0  0  0  0
   55.1878   -5.9286   -4.7787 C   0  0  0  0  0  0  0  0  0  0  0  0
   55.4447   -5.1010   -5.8534 O   0  0  0  0  0  0  0  0  0  0  0  0
   54.2514   -4.9543   -6.5517 C   0  0  0  0  0  0  0  0  0  0  0  0
   53.7303   -6.3764   -6.5667 C   0  0  0  0  0  0  0  0  0  0  0  0
   52.3950   -6.4602   -6.8837 O   0  0  0  0  0  0  0  0  0  0  0  0
   54.0081   -6.7796   -5.1141 C   0  0  0  0  0  0  0  0  0  0  0  0
   52.9291   -6.3440   -4.3498 O   0  0  0  0  0  0  0  0  0  0  0  0
   52.2698   -7.2552   -7.4927 H   0  0  0  0  0  0  0  0  0  0  0  0
   53.0515   -5.3770   -4.0999 H   0  0  0  0  0  0  0  0  0  0  0  0
   56.1698   -7.7252   -3.5445 O   0  0  0  0  0  0  0  0  0  0  0  0
   56.4221   -6.7870   -4.5184 C   0  0  0  0  0  0  0  0  0  0  0  0
   55.9857   -8.6097   -3.9506 H   0  0  0  0  0  0  0  0  0  0  0  0
   56.3914   -3.3981  -12.0475 N   0  0  0  0  0  0  0  0  0  0  0  0
   56.0867   -2.3971  -12.0864 H   0  0  0  0  0  0  0  0  0  0  0  0
   56.6545   -4.2262  -13.2024 C   0  0  0  0  0  0  0  0  0  0  0  0
   57.7883   -3.7521  -14.0220 C   0  0  0  0  0  0  0  0  0  0  0  0
   57.6373   -3.3521  -15.3189 C   0  0  0  0  0  0  0  0  0  0  0  0
   58.7085   -2.8985  -16.0940 C   0  0  0  0  0  0  0  0  0  0  0  0
   59.9513   -2.8654  -15.4990 C   0  0  0  0  0  0  0  0  0  0  0  0
   60.1347   -3.2577  -14.2080 C   0  0  0  0  0  0  0  0  0  0  0  0
   59.0745   -3.6978  -13.4674 C   0  0  0  0  0  0  0  0  0  0  0  0
 19 20  1  0  0  0
 20 10  1  0  0  0
 10 11  1  0  0  0
 11 12  1  0  0  0
 12 13  1  0  0  0
 13 14  1  0  0  0
 13 15  1  0  0  0
 15 16  1  0  0  0
 12  1  1  0  0  0
  1  2  1  0  0  0
  2  3  2  0  0  0
  3  4  1  0  0  0
  4  5  2  0  0  0
  5 22  1  0  0  0
 22 24  1  0  0  0
 24 25  1  0  0  0
 25 26  2  0  0  0
 26 27  1  0  0  0
 27 28  2  0  0  0
 28 29  1  0  0  0
 29 30  2  0  0  0
  5  6  1  0  0  0
  6  7  2  0  0  0
  7  8  1  0  0  0
  8  9  2  0  0  0
 15 10  1  0  0  0
  9  1  1  0  0  0
  9  4  1  0  0  0
 30 25  1  0  0  0
 19 21  1  0  0  0
 14 17  1  0  0  0
 16 18  1  0  0  0
 22 23  1  0  0  0
M  END
> <minimizedAffinity>
-6.93687

> <CNNscore>
0.4023496211

> <CNNaffinity>
5.1044411659

> <CNN_VS>
2.0537700653

> <CNNaffinity_variance>
0.2913775444

$$$$
[H]OC([H])([H])[C@@]1([H])O[C@@]([H])(n2c([H])nc3c(N([H])C([H])([H])c4c([H])c([H])c([H])c([H])c4[H])nc([H])nc32)[C@]([H])(O[H])[C@]1([H])O[H]


 30 33  0  0  0  0  0  0  0  0999 V2000
   56.6782   -4.2116  -10.1113 N   0  0  0  0  0  0  0  0  0  0  0  0
   57.4646   -4.8256   -9.2113 C   0  0  0  0  0  0  0  0  0  0  0  0
   56.7523   -5.1202   -8.1098 N   0  0  0  0  0  0  0  0  0  0  0  0
   55.4946   -4.6945   -8.2962 C   0  0  0  0  0  0  0  0  0  0  0  0
   54.3473   -4.7375   -7.4945 C   0  0  0  0  0  0  0  0  0  0  0  0
   53.2291   -4.2077   -8.0011 N   0  0  0  0  0  0  0  0  0  0  0  0
   53.2114   -3.6533   -9.2392 C   0  0  0  0  0  0  0  0  0  0  0  0
   54.3177   -3.6168  -10.0011 N   0  0  0  0  0  0  0  0  0  0  0  0
   55.4628   -4.1285   -9.5518 C   0  0  0  0  0  0  0  0  0  0  0  0
   56.5562   -3.8077  -13.5933 C   0  0  0  0  0  0  0  0  0  0  0  0
   56.0310   -3.8436  -12.3170 O   0  0  0  0  0  0  0  0  0  0  0  0
   57.0984   -3.7400  -11.4319 C   0  0  0  0  0  0  0  0  0  0  0  0
   58.1061   -4.6815  -12.0582 C   0  0  0  0  0  0  0  0  0  0  0  0
   59.3837   -4.5004  -11.5836 O   0  0  0  0  0  0  0  0  0  0  0  0
   57.9716   -4.2779  -13.5309 C   0  0  0  0  0  0  0  0  0  0  0  0
   58.8019   -3.1794  -13.7367 O   0  0  0  0  0  0  0  0  0  0  0  0
   59.8027   -5.4109  -11.4647 H   0  0  0  0  0  0  0  0  0  0  0  0
   58.3283   -2.3337  -13.4665 H   0  0  0  0  0  0  0  0  0  0  0  0
   56.5235   -5.5742  -15.2037 O   0  0  0  0  0  0  0  0  0  0  0  0
   55.7199   -4.7154  -14.4903 C   0  0  0  0  0  0  0  0  0  0  0  0
   56.5364   -6.4711  -14.7835 H   0  0  0  0  0  0  0  0  0  0  0  0
   54.4111   -5.3325   -6.1929 N   0  0  0  0  0  0  0  0  0  0  0  0
   54.2736   -4.7283   -5.3490 H   0  0  0  0  0  0  0  0  0  0  0  0
   54.6629   -6.7552   -6.1571 C   0  0  0  0  0  0  0  0  0  0  0  0
   55.5028   -7.1769   -5.0176 C   0  0  0  0  0  0  0  0  0  0  0  0
   55.0313   -7.9788   -4.0178 C   0  0  0  0  0  0  0  0  0  0  0  0
   55.8267   -8.3827   -2.9415 C   0  0  0  0  0  0  0  0  0  0  0  0
   57.1311   -7.9386   -2.9164 C   0  0  0  0  0  0  0  0  0  0  0  0
   57.6312   -7.1381   -3.8980 C   0  0  0  0  0  0  0  0  0  0  0  0
   56.8373   -6.7547   -4.9414 C   0  0  0  0  0  0  0  0  0  0  0  0
 19 20  1  0  0  0
 20 10  1  0  0  0
 10 11  1  0  0  0
 11 12  1  0  0  0
 12 13  1  0  0  0
 13 14  1  0  0  0
 13 15  1  0  0  0
 15 16  1  0  0  0
 12  1  1  0  0  0
  1  2  1  0  0  0
  2  3  2  0  0  0
  3  4  1  0  0  0
  4  5  2  0  0  0
  5 22  1  0  0  0
 22 24  1  0  0  0
 24 25  1  0  0  0
 25 26  2  0  0  0
 26 27  1  0  0  0
 27 28  2  0  0  0
 28 29  1  0  0  0
 29 30  2  0  0  0
  5  6  1  0  0  0
  6  7  2  0  0  0
  7  8  1  0  0  0
  8  9  2  0  0  0
 15 10  1  0  0  0
  9  1  1  0  0  0
  9  4  1  0  0  0
 30 25  1  0  0  0
 19 21  1  0  0  0
 14 17  1  0  0  0
 16 18  1  0  0  0
 22 23  1  0  0  0
M  END
> <minimizedAffinity>
-7.14149

> <CNNscore>
0.3959471583

> <CNNaffinity>
5.6151785851

> <CNN_VS>
2.2233140469

> <CNNaffinity_variance>
0.1457021683

$$$$
[H]OC([H])([H])[C@@]1([H])O[C@@]([H])(n2c([H])nc3c(N([H])C([H])([H])c4c([H])c([H])c([H])c([H])c4[H])nc([H])nc32)[C@]([H])(O[H])[C@]1([H])O[H]


 30 33  0  0  0  0  0  0  0  0999 V2000
   53.2914   -4.3501   -7.6230 N   0  0  0  0  0  0  0  0  0  0  0  0
   52.7518   -3.6964   -8.6656 C   0  0  0  0  0  0  0  0  0  0  0  0
   53.6866   -3.4964   -9.6109 N   0  0  0  0  0  0  0  0  0  0  0  0
   54.8411   -4.0241   -9.1788 C   0  0  0  0  0  0  0  0  0  0  0  0
   56.1204   -4.1038   -9.7427 C   0  0  0  0  0  0  0  0  0  0  0  0
   57.0674   -4.7138   -9.0224 N   0  0  0  0  0  0  0  0  0  0  0  0
   56.7961   -5.2317   -7.7983 C   0  0  0  0  0  0  0  0  0  0  0  0
   55.5651   -5.1502   -7.2655 N   0  0  0  0  0  0  0  0  0  0  0  0
   54.5791   -4.5543   -7.9346 C   0  0  0  0  0  0  0  0  0  0  0  0
   52.8460   -5.8346   -4.4765 C   0  0  0  0  0  0  0  0  0  0  0  0
   53.5110   -5.0825   -5.4242 O   0  0  0  0  0  0  0  0  0  0  0  0
   52.5838   -4.7454   -6.4039 C   0  0  0  0  0  0  0  0  0  0  0  0
   51.8502   -6.0569   -6.5933 C   0  0  0  0  0  0  0  0  0  0  0  0
   50.6495   -5.9158   -7.2482 O   0  0  0  0  0  0  0  0  0  0  0  0
   51.6673   -6.4762   -5.1302 C   0  0  0  0  0  0  0  0  0  0  0  0
   50.5170   -5.8483   -4.6603 O   0  0  0  0  0  0  0  0  0  0  0  0
   50.5537   -6.6881   -7.8908 H   0  0  0  0  0  0  0  0  0  0  0  0
   50.7329   -4.9123   -4.3603 H   0  0  0  0  0  0  0  0  0  0  0  0
   54.7938   -7.1716   -4.8421 O   0  0  0  0  0  0  0  0  0  0  0  0
   53.8050   -6.8874   -3.9289 C   0  0  0  0  0  0  0  0  0  0  0  0
   55.6305   -6.6944   -4.6112 H   0  0  0  0  0  0  0  0  0  0  0  0
   56.3626   -3.5430  -11.0385 N   0  0  0  0  0  0  0  0  0  0  0  0
   55.7951   -2.7208  -11.3523 H   0  0  0  0  0  0  0  0  0  0  0  0
   57.4005   -4.1759  -11.8201 C   0  0  0  0  0  0  0  0  0  0  0  0
   57.1592   -4.1198  -13.2763 C   0  0  0  0  0  0  0  0  0  0  0  0
   57.9213   -3.3589  -14.1159 C   0  0  0  0  0  0  0  0  0  0  0  0
   57.6972   -3.3090  -15.4948 C   0  0  0  0  0  0  0  0  0  0  0  0
   56.6609   -4.0670  -15.9958 C   0  0  0  0  0  0  0  0  0  0  0  0
   55.8827   -4.8360  -15.1849 C   0  0  0  0  0  0  0  0  0  0  0  0
   56.1184   -4.8709  -13.8398 C   0  0  0  0  0  0  0  0  0  0  0  0
 19 20  1  0  0  0
 20 10  1  0  0  0
 10 11  1  0  0  0
 11 12  1  0  0  0
 12 13  1  0  0  0
 13 14  1  0  0  0
 13 15  1  0  0  0
 15 16  1  0  0  0
 12  1  1  0  0  0
  1  2  1  0  0  0
  2  3  2  0  0  0
  3  4  1  0  0  0
  4  5  2  0  0  0
  5 22  1  0  0  0
 22 24  1  0  0  0
 24 25  1  0  0  0
 25 26  2  0  0  0
 26 27  1  0  0  0
 27 28  2  0  0  0
 28 29  1  0  0  0
 29 30  2  0  0  0
  5  6  1  0  0  0
  6  7  2  0  0  0
  7  8  1  0  0  0
  8  9  2  0  0  0
 15 10  1  0  0  0
  9  1  1  0  0  0
  9  4  1  0  0  0
 30 25  1  0  0  0
 19 21  1  0  0  0
 14 17  1  0  0  0
 16 18  1  0  0  0
 22 23  1  0  0  0
M  END
> <minimizedAffinity>
-7.51759

> <CNNscore>
0.3576009870

> <CNNaffinity>
5.3644790649

> <CNN_VS>
1.9183430672

> <CNNaffinity_variance>
0.1668796241

$$$$
[H]OC([H])([H])[C@@]1([H])O[C@@]([H])(n2c([H])nc3c(N([H])C([H])([H])c4c([H])c([H])c([H])c([H])c4[H])nc([H])nc32)[C@]([H])(O[H])[C@]1([H])O[H]


 30 33  0  0  0  0  0  0  0  0999 V2000
   53.0948   -4.4773   -8.3500 N   0  0  0  0  0  0  0  0  0  0  0  0
   52.7541   -3.6706   -9.3692 C   0  0  0  0  0  0  0  0  0  0  0  0
   53.8492   -3.3438  -10.0771 N   0  0  0  0  0  0  0  0  0  0  0  0
   54.9083   -3.9427   -9.5134 C   0  0  0  0  0  0  0  0  0  0  0  0
   56.2732   -3.9527   -9.8263 C   0  0  0  0  0  0  0  0  0  0  0  0
   57.0749   -4.6732   -9.0351 N   0  0  0  0  0  0  0  0  0  0  0  0
   56.5827   -5.3633   -7.9758 C   0  0  0  0  0  0  0  0  0  0  0  0
   55.2712   -5.3474   -7.6837 N   0  0  0  0  0  0  0  0  0  0  0  0
   54.4217   -4.6479   -8.4348 C   0  0  0  0  0  0  0  0  0  0  0  0
   50.3269   -4.5846   -6.1983 C   0  0  0  0  0  0  0  0  0  0  0  0
   50.9814   -4.3249   -7.3858 O   0  0  0  0  0  0  0  0  0  0  0  0
   52.1734   -5.0403   -7.3615 C   0  0  0  0  0  0  0  0  0  0  0  0
   52.6552   -4.7815   -5.9490 C   0  0  0  0  0  0  0  0  0  0  0  0
   53.6329   -5.6583   -5.5416 O   0  0  0  0  0  0  0  0  0  0  0  0
   51.3445   -4.9752   -5.1783 C   0  0  0  0  0  0  0  0  0  0  0  0
   51.2074   -6.3384   -4.9304 O   0  0  0  0  0  0  0  0  0  0  0  0
   54.3201   -5.1358   -5.0187 H   0  0  0  0  0  0  0  0  0  0  0  0
   50.7998   -6.7949   -5.7292 H   0  0  0  0  0  0  0  0  0  0  0  0
   49.8394   -2.2840   -6.6280 O   0  0  0  0  0  0  0  0  0  0  0  0
   49.5798   -3.3258   -5.7679 C   0  0  0  0  0  0  0  0  0  0  0  0
   49.0946   -2.1676   -7.2706 H   0  0  0  0  0  0  0  0  0  0  0  0
   56.7498   -3.2094  -10.9544 N   0  0  0  0  0  0  0  0  0  0  0  0
   56.3892   -2.2396  -11.1150 H   0  0  0  0  0  0  0  0  0  0  0  0
   57.7166   -3.8799  -11.7937 C   0  0  0  0  0  0  0  0  0  0  0  0
   57.2861   -4.0105  -13.2007 C   0  0  0  0  0  0  0  0  0  0  0  0
   57.8849   -3.3217  -14.2164 C   0  0  0  0  0  0  0  0  0  0  0  0
   57.4817   -3.4482  -15.5489 C   0  0  0  0  0  0  0  0  0  0  0  0
   56.4381   -4.3079  -15.8158 C   0  0  0  0  0  0  0  0  0  0  0  0
   55.8202   -5.0089  -14.8252 C   0  0  0  0  0  0  0  0  0  0  0  0
   56.2295   -4.8710  -13.5293 C   0  0  0  0  0  0  0  0  0  0  0  0
 19 20  1  0  0  0
 20 10  1  0  0  0
 10 11  1  0  0  0
 11 12  1  0  0  0
 12 13  1  0  0  0
 13 14  1  0  0  0
 13 15  1  0  0  0
 15 16  1  0  0  0
 12  1  1  0  0  0
  1  2  1  0  0  0
  2  3  2  0  0  0
  3  4  1  0  0  0
  4  5  2  0  0  0
  5 22  1  0  0  0
 22 24  1  0  0  0
 24 25  1  0  0  0
 25 26  2  0  0  0
 26 27  1  0  0  0
 27 28  2  0  0  0
 28 29  1  0  0  0
 29 30  2  0  0  0
  5  6  1  0  0  0
  6  7  2  0  0  0
  7  8  1  0  0  0
  8  9  2  0  0  0
 15 10  1  0  0  0
  9  1  1  0  0  0
  9  4  1  0  0  0
 30 25  1  0  0  0
 19 21  1  0  0  0
 14 17  1  0  0  0
 16 18  1  0  0  0
 22 23  1  0  0  0
M  END
> <minimizedAffinity>
-7.56140

> <CNNscore>
0.3287373185

> <CNNaffinity>
5.3470854759

> <CNN_VS>
1.7577865124

> <CNNaffinity_variance>
0.1331935227

$$$$
[H]OC([H])([H])[C@@]1([H])O[C@@]([H])(n2c([H])nc3c(N([H])C([H])([H])c4c([H])c([H])c([H])c([H])c4[H])nc([H])nc32)[C@]([H])(O[H])[C@]1([H])O[H]


 30 33  0  0  0  0  0  0  0  0999 V2000
   55.7052   -4.9546   -8.6282 N   0  0  0  0  0  0  0  0  0  0  0  0
   54.8926   -4.1566   -9.3412 C   0  0  0  0  0  0  0  0  0  0  0  0
   55.5171   -3.7552  -10.4620 N   0  0  0  0  0  0  0  0  0  0  0  0
   56.7437   -4.2967  -10.4767 C   0  0  0  0  0  0  0  0  0  0  0  0
   57.8061   -4.2206  -11.3858 C   0  0  0  0  0  0  0  0  0  0  0  0
   58.9164   -4.9019  -11.0847 N   0  0  0  0  0  0  0  0  0  0  0  0
   59.0055   -5.6341   -9.9461 C   0  0  0  0  0  0  0  0  0  0  0  0
   57.9804   -5.7009   -9.0797 N   0  0  0  0  0  0  0  0  0  0  0  0
   56.8474   -5.0440   -9.3241 C   0  0  0  0  0  0  0  0  0  0  0  0
   53.6609   -6.2711   -6.1003 C   0  0  0  0  0  0  0  0  0  0  0  0
   54.0783   -6.0818   -7.4026 O   0  0  0  0  0  0  0  0  0  0  0  0
   55.3758   -5.5849   -7.3486 C   0  0  0  0  0  0  0  0  0  0  0  0
   55.2628   -4.5576   -6.2413 C   0  0  0  0  0  0  0  0  0  0  0  0
   56.4817   -4.1673   -5.7389 O   0  0  0  0  0  0  0  0  0  0  0  0
   54.4419   -5.3528   -5.2198 C   0  0  0  0  0  0  0  0  0  0  0  0
   55.3355   -6.1208   -4.4781 O   0  0  0  0  0  0  0  0  0  0  0  0
   56.4467   -3.1715   -5.5781 H   0  0  0  0  0  0  0  0  0  0  0  0
   55.5452   -6.9747   -4.9675 H   0  0  0  0  0  0  0  0  0  0  0  0
   51.8935   -4.7207   -6.5336 O   0  0  0  0  0  0  0  0  0  0  0  0
   52.1682   -5.9660   -6.0176 C   0  0  0  0  0  0  0  0  0  0  0  0
   51.5416   -4.7947   -7.4566 H   0  0  0  0  0  0  0  0  0  0  0  0
   57.6687   -3.4352  -12.5761 N   0  0  0  0  0  0  0  0  0  0  0  0
   58.2921   -2.6052  -12.7138 H   0  0  0  0  0  0  0  0  0  0  0  0
   56.6563   -3.8710  -13.5108 C   0  0  0  0  0  0  0  0  0  0  0  0
   56.9953   -3.5900  -14.9208 C   0  0  0  0  0  0  0  0  0  0  0  0
   58.2115   -3.0960  -15.2969 C   0  0  0  0  0  0  0  0  0  0  0  0
   58.5353   -2.8343  -16.6314 C   0  0  0  0  0  0  0  0  0  0  0  0
   57.5699   -3.0947  -17.5799 C   0  0  0  0  0  0  0  0  0  0  0  0
   56.3476   -3.5874  -17.2371 C   0  0  0  0  0  0  0  0  0  0  0  0
   56.0510   -3.8364  -15.9271 C   0  0  0  0  0  0  0  0  0  0  0  0
 19 20  1  0  0  0
 20 10  1  0  0  0
 10 11  1  0  0  0
 11 12  1  0  0  0
 12 13  1  0  0  0
 13 14  1  0  0  0
 13 15  1  0  0  0
 15 16  1  0  0  0
 12  1  1  0  0  0
  1  2  1  0  0  0
  2  3  2  0  0  0
  3  4  1  0  0  0
  4  5  2  0  0  0
  5 22  1  0  0  0
 22 24  1  0  0  0
 24 25  1  0  0  0
 25 26  2  0  0  0
 26 27  1  0  0  0
 27 28  2  0  0  0
 28 29  1  0  0  0
 29 30  2  0  0  0
  5  6  1  0  0  0
  6  7  2  0  0  0
  7  8  1  0  0  0
  8  9  2  0  0  0
 15 10  1  0  0  0
  9  1  1  0  0  0
  9  4  1  0  0  0
 30 25  1  0  0  0
 19 21  1  0  0  0
 14 17  1  0  0  0
 16 18  1  0  0  0
 22 23  1  0  0  0
M  END
> <minimizedAffinity>
-6.58500

> <CNNscore>
0.3141938150

> <CNNaffinity>
4.7420110703

> <CNN_VS>
1.4899106026

> <CNNaffinity_variance>
0.6979203820

$$$$
[H]OC([H])([H])[C@@]1([H])O[C@@]([H])(n2c([H])nc3c(N([H])[H])nc(N4C([H])([H])C([H])([H])OC([H])([H])C4([H])[H])nc32)[C@]([H])(O[H])[C@]1([H])O[H]


 30 33  0  0  0  0  0  0  0  0999 V2000
   50.6929   -5.3845   -4.1489 N   0  0  0  0  0  0  0  0  0  0  0  0
   49.5577   -4.7201   -3.8508 C   0  0  0  0  0  0  0  0  0  0  0  0
   49.2970   -3.7758   -4.7724 N   0  0  0  0  0  0  0  0  0  0  0  0
   50.2818   -3.8322   -5.6812 C   0  0  0  0  0  0  0  0  0  0  0  0
   50.5503   -3.1198   -6.8388 C   0  0  0  0  0  0  0  0  0  0  0  0
   49.6588   -2.1031   -7.2236 N   0  0  0  0  0  0  0  0  0  0  0  0
   51.6558   -3.4490   -7.5260 N   0  0  0  0  0  0  0  0  0  0  0  0
   52.4860   -4.4285   -7.1266 C   0  0  0  0  0  0  0  0  0  0  0  0
   52.2175   -5.1147   -6.0019 N   0  0  0  0  0  0  0  0  0  0  0  0
   51.1324   -4.8201   -5.2917 C   0  0  0  0  0  0  0  0  0  0  0  0
   48.6643   -2.3434   -7.4084 H   0  0  0  0  0  0  0  0  0  0  0  0
   49.9812   -1.1236   -7.3243 H   0  0  0  0  0  0  0  0  0  0  0  0
   51.2649   -7.7485   -1.6645 C   0  0  0  0  0  0  0  0  0  0  0  0
   50.5618   -6.6486   -2.1568 O   0  0  0  0  0  0  0  0  0  0  0  0
   51.2304   -6.4356   -3.3684 C   0  0  0  0  0  0  0  0  0  0  0  0
   52.6448   -6.2507   -2.9113 C   0  0  0  0  0  0  0  0  0  0  0  0
   53.5432   -6.6497   -3.9040 O   0  0  0  0  0  0  0  0  0  0  0  0
   52.6944   -7.2547   -1.7485 C   0  0  0  0  0  0  0  0  0  0  0  0
   53.5795   -8.2900   -2.0420 O   0  0  0  0  0  0  0  0  0  0  0  0
   53.1155   -7.4224   -4.3740 H   0  0  0  0  0  0  0  0  0  0  0  0
   54.4714   -8.0061   -1.6830 H   0  0  0  0  0  0  0  0  0  0  0  0
   49.5470   -7.6924   -0.0285 O   0  0  0  0  0  0  0  0  0  0  0  0
   50.8697   -8.0559   -0.2361 C   0  0  0  0  0  0  0  0  0  0  0  0
   49.0140   -8.1682   -0.7121 H   0  0  0  0  0  0  0  0  0  0  0  0
   53.6542   -4.7320   -7.9085 N   0  0  0  0  0  0  0  0  0  0  0  0
   53.8557   -4.1788   -9.2157 C   0  0  0  0  0  0  0  0  0  0  0  0
   55.3072   -3.8769   -9.5081 C   0  0  0  0  0  0  0  0  0  0  0  0
   56.1824   -4.7543   -8.9154 O   0  0  0  0  0  0  0  0  0  0  0  0
   56.0045   -4.9007   -7.5527 C   0  0  0  0  0  0  0  0  0  0  0  0
   54.6630   -5.6220   -7.3684 C   0  0  0  0  0  0  0  0  0  0  0  0
 22 23  1  0  0  0
 23 13  1  0  0  0
 13 14  1  0  0  0
 14 15  1  0  0  0
 15 16  1  0  0  0
 16 17  1  0  0  0
 16 18  1  0  0  0
 18 19  1  0  0  0
 15  1  1  0  0  0
  1  2  1  0  0  0
  2  3  2  0  0  0
  3  4  1  0  0  0
  4  5  2  0  0  0
  5  6  1  0  0  0
  5  7  1  0  0  0
  7  8  2  0  0  0
  8  9  1  0  0  0
  9 10  2  0  0  0
  8 25  1  0  0  0
 25 26  1  0  0  0
 26 27  1  0  0  0
 27 28  1  0  0  0
 28 29  1  0  0  0
 29 30  1  0  0  0
 18 13  1  0  0  0
 10  1  1  0  0  0
 30 25  1  0  0  0
 10  4  1  0  0  0
 22 24  1  0  0  0
 17 20  1  0  0  0
 19 21  1  0  0  0
  6 11  1  0  0  0
  6 12  1  0  0  0
M  END
> <minimizedAffinity>
-8.97933

> <CNNscore>
0.7118272185

> <CNNaffinity>
5.9541535378

> <CNN_VS>
4.2383284569

> <CNNaffinity_variance>
0.3741423190

$$$$
[H]OC([H])([H])[C@@]1([H])O[C@@]([H])(n2c([H])nc3c(N([H])[H])nc(N4C([H])([H])C([H])([H])OC([H])([H])C4([H])[H])nc32)[C@]([H])(O[H])[C@]1([H])O[H]


 30 33  0  0  0  0  0  0  0  0999 V2000
   53.9585   -3.8341   -9.0402 N   0  0  0  0  0  0  0  0  0  0  0  0
   53.3868   -2.8596   -9.7767 C   0  0  0  0  0  0  0  0  0  0  0  0
   52.2128   -2.4788   -9.2421 N   0  0  0  0  0  0  0  0  0  0  0  0
   52.0241   -3.2211   -8.1410 C   0  0  0  0  0  0  0  0  0  0  0  0
   51.0142   -3.2792   -7.1942 C   0  0  0  0  0  0  0  0  0  0  0  0
   49.9134   -2.4158   -7.3326 N   0  0  0  0  0  0  0  0  0  0  0  0
   51.1526   -4.1654   -6.1950 N   0  0  0  0  0  0  0  0  0  0  0  0
   52.2209   -4.9760   -6.0952 C   0  0  0  0  0  0  0  0  0  0  0  0
   53.1961   -4.9126   -7.0187 N   0  0  0  0  0  0  0  0  0  0  0  0
   53.0978   -4.0485   -8.0249 C   0  0  0  0  0  0  0  0  0  0  0  0
   50.0718   -1.3883   -7.3374 H   0  0  0  0  0  0  0  0  0  0  0  0
   48.9524   -2.7910   -7.4291 H   0  0  0  0  0  0  0  0  0  0  0  0
   57.1462   -5.2087   -8.8465 C   0  0  0  0  0  0  0  0  0  0  0  0
   56.0761   -4.5333   -8.2588 O   0  0  0  0  0  0  0  0  0  0  0  0
   55.1994   -4.4418   -9.3467 C   0  0  0  0  0  0  0  0  0  0  0  0
   56.0408   -3.7302  -10.3613 C   0  0  0  0  0  0  0  0  0  0  0  0
   55.6535   -4.0769  -11.6579 O   0  0  0  0  0  0  0  0  0  0  0  0
   57.4171   -4.3451  -10.0610 C   0  0  0  0  0  0  0  0  0  0  0  0
   57.8534   -5.1045  -11.1447 O   0  0  0  0  0  0  0  0  0  0  0  0
   55.3680   -5.0349  -11.6178 H   0  0  0  0  0  0  0  0  0  0  0  0
   58.3856   -4.4842  -11.7252 H   0  0  0  0  0  0  0  0  0  0  0  0
   59.4111   -5.8575   -8.5634 O   0  0  0  0  0  0  0  0  0  0  0  0
   58.3424   -5.2500   -7.9200 C   0  0  0  0  0  0  0  0  0  0  0  0
   59.5591   -5.3527   -9.4007 H   0  0  0  0  0  0  0  0  0  0  0  0
   52.3086   -5.9035   -4.9998 N   0  0  0  0  0  0  0  0  0  0  0  0
   53.5325   -6.5739   -4.6708 C   0  0  0  0  0  0  0  0  0  0  0  0
   53.7094   -6.7767   -3.1839 C   0  0  0  0  0  0  0  0  0  0  0  0
   52.5293   -6.9849   -2.5122 O   0  0  0  0  0  0  0  0  0  0  0  0
   51.5692   -6.0166   -2.7372 C   0  0  0  0  0  0  0  0  0  0  0  0
   51.1312   -6.1756   -4.1989 C   0  0  0  0  0  0  0  0  0  0  0  0
 22 23  1  0  0  0
 23 13  1  0  0  0
 13 14  1  0  0  0
 14 15  1  0  0  0
 15 16  1  0  0  0
 16 17  1  0  0  0
 16 18  1  0  0  0
 18 19  1  0  0  0
 15  1  1  0  0  0
  1  2  1  0  0  0
  2  3  2  0  0  0
  3  4  1  0  0  0
  4  5  2  0  0  0
  5  6  1  0  0  0
  5  7  1  0  0  0
  7  8  2  0  0  0
  8  9  1  0  0  0
  9 10  2  0  0  0
  8 25  1  0  0  0
 25 26  1  0  0  0
 26 27  1  0  0  0
 27 28  1  0  0  0
 28 29  1  0  0  0
 29 30  1  0  0  0
 18 13  1  0  0  0
 10  1  1  0  0  0
 30 25  1  0  0  0
 10  4  1  0  0  0
 22 24  1  0  0  0
 17 20  1  0  0  0
 19 21  1  0  0  0
  6 11  1  0  0  0
  6 12  1  0  0  0
M  END
> <minimizedAffinity>
-8.33120

> <CNNscore>
0.6407256126

> <CNNaffinity>
5.9092111588

> <CNN_VS>
3.7861828804

> <CNNaffinity_variance>
0.3212659061

$$$$
[H]OC([H])([H])[C@@]1([H])O[C@@]([H])(n2c([H])nc3c(N([H])[H])nc(N4C([H])([H])C([H])([H])OC([H])([H])C4([H])[H])nc32)[C@]([H])(O[H])[C@]1([H])O[H]


 30 33  0  0  0  0  0  0  0  0999 V2000
   52.7103   -5.4933   -5.7255 N   0  0  0  0  0  0  0  0  0  0  0  0
   51.4339   -5.0602   -5.6796 C   0  0  0  0  0  0  0  0  0  0  0  0
   51.1904   -4.1764   -6.6638 N   0  0  0  0  0  0  0  0  0  0  0  0
   52.3302   -4.0371   -7.3568 C   0  0  0  0  0  0  0  0  0  0  0  0
   52.6864   -3.2780   -8.4598 C   0  0  0  0  0  0  0  0  0  0  0  0
   51.7151   -2.4475   -9.0456 N   0  0  0  0  0  0  0  0  0  0  0  0
   53.9493   -3.3851   -8.9032 N   0  0  0  0  0  0  0  0  0  0  0  0
   54.8519   -4.1909   -8.3165 C   0  0  0  0  0  0  0  0  0  0  0  0
   54.4972   -4.9238   -7.2465 N   0  0  0  0  0  0  0  0  0  0  0  0
   53.2559   -4.8471   -6.7754 C   0  0  0  0  0  0  0  0  0  0  0  0
   50.8414   -2.8720   -9.4165 H   0  0  0  0  0  0  0  0  0  0  0  0
   51.8605   -1.4238   -9.1110 H   0  0  0  0  0  0  0  0  0  0  0  0
   53.4666   -7.3652   -2.8950 C   0  0  0  0  0  0  0  0  0  0  0  0
   52.8004   -6.3035   -3.5076 O   0  0  0  0  0  0  0  0  0  0  0  0
   53.2685   -6.4281   -4.8213 C   0  0  0  0  0  0  0  0  0  0  0  0
   54.7516   -6.3436   -4.6290 C   0  0  0  0  0  0  0  0  0  0  0  0
   55.4226   -7.0487   -5.6311 O   0  0  0  0  0  0  0  0  0  0  0  0
   54.9017   -7.0915   -3.2946 C   0  0  0  0  0  0  0  0  0  0  0  0
   55.6176   -8.2722   -3.4809 O   0  0  0  0  0  0  0  0  0  0  0  0
   54.8471   -7.8366   -5.8520 H   0  0  0  0  0  0  0  0  0  0  0  0
   56.5814   -8.0425   -3.3280 H   0  0  0  0  0  0  0  0  0  0  0  0
   54.4538   -6.8431   -0.8012 O   0  0  0  0  0  0  0  0  0  0  0  0
   53.2945   -7.3250   -1.3917 C   0  0  0  0  0  0  0  0  0  0  0  0
   54.6363   -5.9642   -1.2160 H   0  0  0  0  0  0  0  0  0  0  0  0
   56.1890   -4.2600   -8.8410 N   0  0  0  0  0  0  0  0  0  0  0  0
   57.2821   -4.7679   -8.0647 C   0  0  0  0  0  0  0  0  0  0  0  0
   58.2873   -5.5316   -8.8954 C   0  0  0  0  0  0  0  0  0  0  0  0
   58.4286   -5.0460  -10.1726 O   0  0  0  0  0  0  0  0  0  0  0  0
   57.2416   -4.9307  -10.8710 C   0  0  0  0  0  0  0  0  0  0  0  0
   56.4500   -3.8052  -10.1926 C   0  0  0  0  0  0  0  0  0  0  0  0
 22 23  1  0  0  0
 23 13  1  0  0  0
 13 14  1  0  0  0
 14 15  1  0  0  0
 15 16  1  0  0  0
 16 17  1  0  0  0
 16 18  1  0  0  0
 18 19  1  0  0  0
 15  1  1  0  0  0
  1  2  1  0  0  0
  2  3  2  0  0  0
  3  4  1  0  0  0
  4  5  2  0  0  0
  5  6  1  0  0  0
  5  7  1  0  0  0
  7  8  2  0  0  0
  8  9  1  0  0  0
  9 10  2  0  0  0
  8 25  1  0  0  0
 25 26  1  0  0  0
 26 27  1  0  0  0
 27 28  1  0  0  0
 28 29  1  0  0  0
 29 30  1  0  0  0
 18 13  1  0  0  0
 10  1  1  0  0  0
 30 25  1  0  0  0
 10  4  1  0  0  0
 22 24  1  0  0  0
 17 20  1  0  0  0
 19 21  1  0  0  0
  6 11  1  0  0  0
  6 12  1  0  0  0
M  END
> <minimizedAffinity>
-7.96734

> <CNNscore>
0.5895874500

> <CNNaffinity>
5.5785632133

> <CNN_VS>
3.2890508175

> <CNNaffinity_variance>
0.2443613708

$$$$
[H]OC([H])([H])[C@@]1([H])O[C@@]([H])(n2c([H])nc3c(N([H])[H])nc(N4C([H])([H])C([H])([H])OC([H])([H])C4([H])[H])nc32)[C@]([H])(O[H])[C@]1([H])O[H]


 30 33  0  0  0  0  0  0  0  0999 V2000
   54.0306   -3.5208   -8.5842 N   0  0  0  0  0  0  0  0  0  0  0  0
   53.3899   -2.6768   -9.4186 C   0  0  0  0  0  0  0  0  0  0  0  0
   52.0988   -2.5410   -9.0671 N   0  0  0  0  0  0  0  0  0  0  0  0
   51.9033   -3.3112   -7.9867 C   0  0  0  0  0  0  0  0  0  0  0  0
   50.7984   -3.5746   -7.1932 C   0  0  0  0  0  0  0  0  0  0  0  0
   49.5802   -2.9481   -7.5089 N   0  0  0  0  0  0  0  0  0  0  0  0
   50.9634   -4.4200   -6.1631 N   0  0  0  0  0  0  0  0  0  0  0  0
   52.1452   -5.0011   -5.8916 C   0  0  0  0  0  0  0  0  0  0  0  0
   53.2121   -4.7396   -6.6671 N   0  0  0  0  0  0  0  0  0  0  0  0
   53.0914   -3.9078   -7.6978 C   0  0  0  0  0  0  0  0  0  0  0  0
   49.5305   -1.9096   -7.5161 H   0  0  0  0  0  0  0  0  0  0  0  0
   48.7372   -3.5073   -7.7329 H   0  0  0  0  0  0  0  0  0  0  0  0
   57.1866   -4.3304   -9.7974 C   0  0  0  0  0  0  0  0  0  0  0  0
   55.8316   -4.0752  -10.0100 O   0  0  0  0  0  0  0  0  0  0  0  0
   55.3985   -3.8666   -8.6949 C   0  0  0  0  0  0  0  0  0  0  0  0
   55.8031   -5.1468   -8.0307 C   0  0  0  0  0  0  0  0  0  0  0  0
   56.0580   -4.9419   -6.6725 O   0  0  0  0  0  0  0  0  0  0  0  0
   57.1268   -5.4309   -8.7584 C   0  0  0  0  0  0  0  0  0  0  0  0
   58.1943   -5.3541   -7.8662 O   0  0  0  0  0  0  0  0  0  0  0  0
   56.4532   -4.0259   -6.5972 H   0  0  0  0  0  0  0  0  0  0  0  0
   58.3264   -6.2807   -7.5071 H   0  0  0  0  0  0  0  0  0  0  0  0
   59.0406   -5.4624  -10.7526 O   0  0  0  0  0  0  0  0  0  0  0  0
   57.8598   -4.8054  -11.0672 C   0  0  0  0  0  0  0  0  0  0  0  0
   58.8009   -6.1849  -10.1214 H   0  0  0  0  0  0  0  0  0  0  0  0
   52.2553   -5.8975   -4.7726 N   0  0  0  0  0  0  0  0  0  0  0  0
   53.4948   -6.5302   -4.4276 C   0  0  0  0  0  0  0  0  0  0  0  0
   53.6771   -6.6901   -2.9361 C   0  0  0  0  0  0  0  0  0  0  0  0
   52.5026   -6.9085   -2.2580 O   0  0  0  0  0  0  0  0  0  0  0  0
   51.5198   -5.9692   -2.5071 C   0  0  0  0  0  0  0  0  0  0  0  0
   51.0850   -6.1764   -3.9637 C   0  0  0  0  0  0  0  0  0  0  0  0
 22 23  1  0  0  0
 23 13  1  0  0  0
 13 14  1  0  0  0
 14 15  1  0  0  0
 15 16  1  0  0  0
 16 17  1  0  0  0
 16 18  1  0  0  0
 18 19  1  0  0  0
 15  1  1  0  0  0
  1  2  1  0  0  0
  2  3  2  0  0  0
  3  4  1  0  0  0
  4  5  2  0  0  0
  5  6  1  0  0  0
  5  7  1  0  0  0
  7  8  2  0  0  0
  8  9  1  0  0  0
  9 10  2  0  0  0
  8 25  1  0  0  0
 25 26  1  0  0  0
 26 27  1  0  0  0
 27 28  1  0  0  0
 28 29  1  0  0  0
 29 30  1  0  0  0
 18 13  1  0  0  0
 10  1  1  0  0  0
 30 25  1  0  0  0
 10  4  1  0  0  0
 22 24  1  0  0  0
 17 20  1  0  0  0
 19 21  1  0  0  0
  6 11  1  0  0  0
  6 12  1  0  0  0
M  END
> <minimizedAffinity>
-8.43725

> <CNNscore>
0.5788382292

> <CNNaffinity>
5.8618583679

> <CNN_VS>
3.3930675983

> <CNNaffinity_variance>
0.2995639443

$$$$
[H]OC([H])([H])[C@@]1([H])O[C@@]([H])(n2c([H])nc3c(N([H])[H])nc(N4C([H])([H])C([H])([H])OC([H])([H])C4([H])[H])nc32)[C@]([H])(O[H])[C@]1([H])O[H]


 30 33  0  0  0  0  0  0  0  0999 V2000
   50.9656   -5.2347   -3.5823 N   0  0  0  0  0  0  0  0  0  0  0  0
   49.7258   -4.7445   -3.3781 C   0  0  0  0  0  0  0  0  0  0  0  0
   49.2744   -4.1072   -4.4731 N   0  0  0  0  0  0  0  0  0  0  0  0
   50.2403   -4.1879   -5.4001 C   0  0  0  0  0  0  0  0  0  0  0  0
   50.3504   -3.7274   -6.7022 C   0  0  0  0  0  0  0  0  0  0  0  0
   49.2726   -3.0144   -7.2558 N   0  0  0  0  0  0  0  0  0  0  0  0
   51.4908   -3.9941   -7.3589 N   0  0  0  0  0  0  0  0  0  0  0  0
   52.5015   -4.6797   -6.7962 C   0  0  0  0  0  0  0  0  0  0  0  0
   52.3858   -5.1227   -5.5319 N   0  0  0  0  0  0  0  0  0  0  0  0
   51.2725   -4.8799   -4.8462 C   0  0  0  0  0  0  0  0  0  0  0  0
   48.3423   -3.4735   -7.3244 H   0  0  0  0  0  0  0  0  0  0  0  0
   49.3956   -2.0427   -7.5937 H   0  0  0  0  0  0  0  0  0  0  0  0
   53.4564   -6.9864   -1.9042 C   0  0  0  0  0  0  0  0  0  0  0  0
   52.9641   -6.3832   -3.0620 O   0  0  0  0  0  0  0  0  0  0  0  0
   51.7078   -5.9548   -2.6161 C   0  0  0  0  0  0  0  0  0  0  0  0
   51.0940   -7.2376   -2.1457 C   0  0  0  0  0  0  0  0  0  0  0  0
   50.1689   -7.0004   -1.1262 O   0  0  0  0  0  0  0  0  0  0  0  0
   52.3296   -7.9373   -1.5572 C   0  0  0  0  0  0  0  0  0  0  0  0
   52.1891   -8.0868   -0.1791 O   0  0  0  0  0  0  0  0  0  0  0  0
   50.5246   -6.2272   -0.6002 H   0  0  0  0  0  0  0  0  0  0  0  0
   51.7582   -8.9807   -0.0368 H   0  0  0  0  0  0  0  0  0  0  0  0
   54.4783   -8.8495   -2.9602 O   0  0  0  0  0  0  0  0  0  0  0  0
   54.7438   -7.7327   -2.1810 C   0  0  0  0  0  0  0  0  0  0  0  0
   54.0121   -8.5237   -3.7691 H   0  0  0  0  0  0  0  0  0  0  0  0
   53.6971   -4.9321   -7.5542 N   0  0  0  0  0  0  0  0  0  0  0  0
   53.9641   -4.2624   -8.7934 C   0  0  0  0  0  0  0  0  0  0  0  0
   55.4317   -3.9642   -8.9953 C   0  0  0  0  0  0  0  0  0  0  0  0
   56.2658   -4.9116   -8.4531 O   0  0  0  0  0  0  0  0  0  0  0  0
   56.0267   -5.1822   -7.1191 C   0  0  0  0  0  0  0  0  0  0  0  0
   54.6667   -5.8899   -7.0600 C   0  0  0  0  0  0  0  0  0  0  0  0
 22 23  1  0  0  0
 23 13  1  0  0  0
 13 14  1  0  0  0
 14 15  1  0  0  0
 15 16  1  0  0  0
 16 17  1  0  0  0
 16 18  1  0  0  0
 18 19  1  0  0  0
 15  1  1  0  0  0
  1  2  1  0  0  0
  2  3  2  0  0  0
  3  4  1  0  0  0
  4  5  2  0  0  0
  5  6  1  0  0  0
  5  7  1  0  0  0
  7  8  2  0  0  0
  8  9  1  0  0  0
  9 10  2  0  0  0
  8 25  1  0  0  0
 25 26  1  0  0  0
 26 27  1  0  0  0
 27 28  1  0  0  0
 28 29  1  0  0  0
 29 30  1  0  0  0
 18 13  1  0  0  0
 10  1  1  0  0  0
 30 25  1  0  0  0
 10  4  1  0  0  0
 22 24  1  0  0  0
 17 20  1  0  0  0
 19 21  1  0  0  0
  6 11  1  0  0  0
  6 12  1  0  0  0
M  END
> <minimizedAffinity>
-8.09924

> <CNNscore>
0.5648849010

> <CNNaffinity>
5.7000575066

> <CNN_VS>
3.2198765278

> <CNNaffinity_variance>
0.3538143337

$$$$
[H]OC([H])([H])[C@@]1([H])O[C@@]([H])(n2c([H])nc3c(N([H])[H])nc(N4C([H])([H])C([H])([H])OC([H])([H])C4([H])[H])nc32)[C@]([H])(O[H])[C@]1([H])O[H]


 30 33  0  0  0  0  0  0  0  0999 V2000
   59.6679   -5.8777   -9.7446 N   0  0  0  0  0  0  0  0  0  0  0  0
   59.8580   -5.4380  -11.0053 C   0  0  0  0  0  0  0  0  0  0  0  0
   58.7640   -4.8038  -11.4634 N   0  0  0  0  0  0  0  0  0  0  0  0
   57.8521   -4.8349  -10.4805 C   0  0  0  0  0  0  0  0  0  0  0  0
   56.5578   -4.3533  -10.3676 C   0  0  0  0  0  0  0  0  0  0  0  0
   55.9959   -3.6747  -11.4631 N   0  0  0  0  0  0  0  0  0  0  0  0
   55.9164   -4.5679   -9.2077 N   0  0  0  0  0  0  0  0  0  0  0  0
   56.4867   -5.2220   -8.1805 C   0  0  0  0  0  0  0  0  0  0  0  0
   57.7432   -5.6858   -8.2991 N   0  0  0  0  0  0  0  0  0  0  0  0
   58.4138   -5.4945   -9.4315 C   0  0  0  0  0  0  0  0  0  0  0  0
   56.4585   -2.8140  -11.8184 H   0  0  0  0  0  0  0  0  0  0  0  0
   55.1312   -4.0214  -11.9165 H   0  0  0  0  0  0  0  0  0  0  0  0
   62.4743   -6.7447   -7.8842 C   0  0  0  0  0  0  0  0  0  0  0  0
   61.7598   -5.8206   -8.6472 O   0  0  0  0  0  0  0  0  0  0  0  0
   60.6366   -6.5825   -8.9909 C   0  0  0  0  0  0  0  0  0  0  0  0
   61.2609   -7.7617   -9.6718 C   0  0  0  0  0  0  0  0  0  0  0  0
   60.4585   -8.8968   -9.5329 O   0  0  0  0  0  0  0  0  0  0  0  0
   62.5316   -7.9313   -8.8238 C   0  0  0  0  0  0  0  0  0  0  0  0
   62.4912   -9.1389   -8.1299 O   0  0  0  0  0  0  0  0  0  0  0  0
   60.0300   -8.8278   -8.6315 H   0  0  0  0  0  0  0  0  0  0  0  0
   62.9343   -9.8165   -8.7210 H   0  0  0  0  0  0  0  0  0  0  0  0
   64.0032   -4.9364   -8.0377 O   0  0  0  0  0  0  0  0  0  0  0  0
   63.8601   -6.2305   -7.5584 C   0  0  0  0  0  0  0  0  0  0  0  0
   63.2670   -4.4073   -7.6429 H   0  0  0  0  0  0  0  0  0  0  0  0
   55.7451   -5.4186   -6.9643 N   0  0  0  0  0  0  0  0  0  0  0  0
   54.3828   -4.9922   -6.8302 C   0  0  0  0  0  0  0  0  0  0  0  0
   53.5560   -5.9277   -5.9789 C   0  0  0  0  0  0  0  0  0  0  0  0
   54.2659   -6.5205   -4.9632 O   0  0  0  0  0  0  0  0  0  0  0  0
   55.4173   -7.1642   -5.3756 C   0  0  0  0  0  0  0  0  0  0  0  0
   56.3843   -6.0653   -5.8352 C   0  0  0  0  0  0  0  0  0  0  0  0
 22 23  1  0  0  0
 23 13  1  0  0  0
 13 14  1  0  0  0
 14 15  1  0  0  0
 15 16  1  0  0  0
 16 17  1  0  0  0
 16 18  1  0  0  0
 18 19  1  0  0  0
 15  1  1  0  0  0
  1  2  1  0  0  0
  2  3  2  0  0  0
  3  4  1  0  0  0
  4  5  2  0  0  0
  5  6  1  0  0  0
  5  7  1  0  0  0
  7  8  2  0  0  0
  8  9  1  0  0  0
  9 10  2  0  0  0
  8 25  1  0  0  0
 25 26  1  0  0  0
 26 27  1  0  0  0
 27 28  1  0  0  0
 28 29  1  0  0  0
 29 30  1  0  0  0
 18 13  1  0  0  0
 10  1  1  0  0  0
 30 25  1  0  0  0
 10  4  1  0  0  0
 22 24  1  0  0  0
 17 20  1  0  0  0
 19 21  1  0  0  0
  6 11  1  0  0  0
  6 12  1  0  0  0
M  END
> <minimizedAffinity>
-6.44543

> <CNNscore>
0.3663445115

> <CNNaffinity>
4.3883285522

> <CNN_VS>
1.6076400280

> <CNNaffinity_variance>
0.4010739326

$$$$
[H]OC([H])([H])[C@@]1([H])O[C@@]([H])(n2c([H])nc3c(N([H])[H])nc(N4C([H])([H])C([H])([H])OC([H])([H])C4([H])[H])nc32)[C@]([H])(O[H])[C@]1([H])O[H]


 30 33  0  0  0  0  0  0  0  0999 V2000
   59.1578   -5.7777   -9.5115 N   0  0  0  0  0  0  0  0  0  0  0  0
   58.9522   -5.1723  -10.6990 C   0  0  0  0  0  0  0  0  0  0  0  0
   57.7838   -4.5060  -10.7031 N   0  0  0  0  0  0  0  0  0  0  0  0
   57.2260   -4.6849   -9.4966 C   0  0  0  0  0  0  0  0  0  0  0  0
   56.0434   -4.2492   -8.9210 C   0  0  0  0  0  0  0  0  0  0  0  0
   55.1810   -3.4442   -9.6856 N   0  0  0  0  0  0  0  0  0  0  0  0
   55.7939   -4.6275   -7.6571 N   0  0  0  0  0  0  0  0  0  0  0  0
   56.6433   -5.3990   -6.9561 C   0  0  0  0  0  0  0  0  0  0  0  0
   57.7887   -5.8172   -7.5229 N   0  0  0  0  0  0  0  0  0  0  0  0
   58.0740   -5.4649   -8.7731 C   0  0  0  0  0  0  0  0  0  0  0  0
   55.5274   -2.5349  -10.0520 H   0  0  0  0  0  0  0  0  0  0  0  0
   54.2104   -3.7461   -9.8861 H   0  0  0  0  0  0  0  0  0  0  0  0
   61.7694   -7.3671   -7.8558 C   0  0  0  0  0  0  0  0  0  0  0  0
   60.6966   -6.4751   -7.8594 O   0  0  0  0  0  0  0  0  0  0  0  0
   60.2984   -6.5553   -9.1994 C   0  0  0  0  0  0  0  0  0  0  0  0
   61.5585   -6.1819   -9.9180 C   0  0  0  0  0  0  0  0  0  0  0  0
   61.6067   -6.7813  -11.1789 O   0  0  0  0  0  0  0  0  0  0  0  0
   62.6048   -6.8387   -9.0034 C   0  0  0  0  0  0  0  0  0  0  0  0
   63.2592   -7.8667   -9.6790 O   0  0  0  0  0  0  0  0  0  0  0  0
   61.1618   -7.6723  -11.0822 H   0  0  0  0  0  0  0  0  0  0  0  0
   64.0642   -7.4516  -10.1085 H   0  0  0  0  0  0  0  0  0  0  0  0
   63.0417   -8.5592   -6.2461 O   0  0  0  0  0  0  0  0  0  0  0  0
   62.5273   -7.3063   -6.5470 C   0  0  0  0  0  0  0  0  0  0  0  0
   63.5884   -8.8329   -7.0233 H   0  0  0  0  0  0  0  0  0  0  0  0
   56.3167   -5.7690   -5.6054 N   0  0  0  0  0  0  0  0  0  0  0  0
   56.9742   -6.8536   -4.9369 C   0  0  0  0  0  0  0  0  0  0  0  0
   57.1760   -6.5978   -3.4613 C   0  0  0  0  0  0  0  0  0  0  0  0
   56.1728   -5.8540   -2.8891 O   0  0  0  0  0  0  0  0  0  0  0  0
   55.9113   -4.6606   -3.5352 C   0  0  0  0  0  0  0  0  0  0  0  0
   55.2945   -5.0305   -4.8904 C   0  0  0  0  0  0  0  0  0  0  0  0
 22 23  1  0  0  0
 23 13  1  0  0  0
 13 14  1  0  0  0
 14 15  1  0  0  0
 15 16  1  0  0  0
 16 17  1  0  0  0
 16 18  1  0  0  0
 18 19  1  0  0  0
 15  1  1  0  0  0
  1  2  1  0  0  0
  2  3  2  0  0  0
  3  4  1  0  0  0
  4  5  2  0  0  0
  5  6  1  0  0  0
  5  7  1  0  0  0
  7  8  2  0  0  0
  8  9  1  0  0  0
  9 10  2  0  0  0
  8 25  1  0  0  0
 25 26  1  0  0  0
 26 27  1  0  0  0
 27 28  1  0  0  0
 28 29  1  0  0  0
 29 30  1  0  0  0
 18 13  1  0  0  0
 10  1  1  0  0  0
 30 25  1  0  0  0
 10  4  1  0  0  0
 22 24  1  0  0  0
 17 20  1  0  0  0
 19 21  1  0  0  0
  6 11  1  0  0  0
  6 12  1  0  0  0
M  END
> <minimizedAffinity>
-5.88971

> <CNNscore>
0.3228183687

> <CNNaffinity>
4.4422292709

> <CNN_VS>
1.4340331554

> <CNNaffinity_variance>
0.3327508569

$$$$
[H]OC([H])([H])[C@@]1([H])O[C@@]([H])(n2c([H])nc3c(N([H])[H])nc(N4C([H])([H])C([H])([H])OC([H])([H])C4([H])[H])nc32)[C@]([H])(O[H])[C@]1([H])O[H]


 30 33  0  0  0  0  0  0  0  0999 V2000
   54.8843   -4.2626   -9.6938 N   0  0  0  0  0  0  0  0  0  0  0  0
   53.9556   -3.5256  -10.3367 C   0  0  0  0  0  0  0  0  0  0  0  0
   52.8928   -3.2949   -9.5454 N   0  0  0  0  0  0  0  0  0  0  0  0
   53.1406   -3.8938   -8.3712 C   0  0  0  0  0  0  0  0  0  0  0  0
   52.4272   -4.0006   -7.1882 C   0  0  0  0  0  0  0  0  0  0  0  0
   51.1667   -3.3834   -7.1061 N   0  0  0  0  0  0  0  0  0  0  0  0
   52.9908   -4.6938   -6.1859 N   0  0  0  0  0  0  0  0  0  0  0  0
   54.1997   -5.2711   -6.3012 C   0  0  0  0  0  0  0  0  0  0  0  0
   54.8848   -5.1622   -7.4530 N   0  0  0  0  0  0  0  0  0  0  0  0
   54.3623   -4.4841   -8.4707 C   0  0  0  0  0  0  0  0  0  0  0  0
   51.0948   -2.3557   -7.2463 H   0  0  0  0  0  0  0  0  0  0  0  0
   50.3147   -3.9389   -6.9084 H   0  0  0  0  0  0  0  0  0  0  0  0
   58.1140   -5.4576  -10.1725 C   0  0  0  0  0  0  0  0  0  0  0  0
   57.0737   -5.0724   -9.3265 O   0  0  0  0  0  0  0  0  0  0  0  0
   56.1145   -4.6690  -10.2635 C   0  0  0  0  0  0  0  0  0  0  0  0
   56.8565   -3.6181  -11.0308 C   0  0  0  0  0  0  0  0  0  0  0  0
   56.3813   -3.5327  -12.3417 O   0  0  0  0  0  0  0  0  0  0  0  0
   58.2680   -4.2263  -11.0410 C   0  0  0  0  0  0  0  0  0  0  0  0
   58.6412   -4.5581  -12.3418 O   0  0  0  0  0  0  0  0  0  0  0  0
   56.1261   -4.4628  -12.6077 H   0  0  0  0  0  0  0  0  0  0  0  0
   59.1105   -3.7535  -12.7124 H   0  0  0  0  0  0  0  0  0  0  0  0
   59.7939   -7.0447   -9.6336 O   0  0  0  0  0  0  0  0  0  0  0  0
   59.3780   -5.7436   -9.3904 C   0  0  0  0  0  0  0  0  0  0  0  0
   59.8909   -7.1303  -10.6140 H   0  0  0  0  0  0  0  0  0  0  0  0
   54.7475   -6.0000   -5.1892 N   0  0  0  0  0  0  0  0  0  0  0  0
   54.0345   -7.0743   -4.5623 C   0  0  0  0  0  0  0  0  0  0  0  0
   54.9433   -8.1856   -4.0905 C   0  0  0  0  0  0  0  0  0  0  0  0
   56.1750   -7.7479   -3.6683 O   0  0  0  0  0  0  0  0  0  0  0  0
   56.8435   -6.9605   -4.5865 C   0  0  0  0  0  0  0  0  0  0  0  0
   56.0578   -5.6460   -4.6797 C   0  0  0  0  0  0  0  0  0  0  0  0
 22 23  1  0  0  0
 23 13  1  0  0  0
 13 14  1  0  0  0
 14 15  1  0  0  0
 15 16  1  0  0  0
 16 17  1  0  0  0
 16 18  1  0  0  0
 18 19  1  0  0  0
 15  1  1  0  0  0
  1  2  1  0  0  0
  2  3  2  0  0  0
  3  4  1  0  0  0
  4  5  2  0  0  0
  5  6  1  0  0  0
  5  7  1  0  0  0
  7  8  2  0  0  0
  8  9  1  0  0  0
  9 10  2  0  0  0
  8 25  1  0  0  0
 25 26  1  0  0  0
 26 27  1  0  0  0
 27 28  1  0  0  0
 28 29  1  0  0  0
 29 30  1  0  0  0
 18 13  1  0  0  0
 10  1  1  0  0  0
 30 25  1  0  0  0
 10  4  1  0  0  0
 22 24  1  0  0  0
 17 20  1  0  0  0
 19 21  1  0  0  0
  6 11  1  0  0  0
  6 12  1  0  0  0
M  END
> <minimizedAffinity>
-7.65313

> <CNNscore>
0.3227748275

> <CNNaffinity>
5.4195146561

> <CNN_VS>
1.7492829561

> <CNNaffinity_variance>
0.1597925723

$$$$
[H]OC([H])([H])[C@@]1([H])O[C@@]([H])(n2c([H])nc3c(N([H])[H])nc(N4C([H])([H])C([H])([H])OC([H])([H])C4([H])[H])nc32)[C@]([H])(O[H])[C@]1([H])O[H]


 30 33  0  0  0  0  0  0  0  0999 V2000
   56.5909   -5.1672   -7.6897 N   0  0  0  0  0  0  0  0  0  0  0  0
   55.5996   -4.5662   -8.3791 C   0  0  0  0  0  0  0  0  0  0  0  0
   55.9674   -4.3419   -9.6532 N   0  0  0  0  0  0  0  0  0  0  0  0
   57.2183   -4.8065   -9.7880 C   0  0  0  0  0  0  0  0  0  0  0  0
   58.1066   -4.8537  -10.8503 C   0  0  0  0  0  0  0  0  0  0  0  0
   57.7004   -4.3278  -12.0892 N   0  0  0  0  0  0  0  0  0  0  0  0
   59.3107   -5.4040  -10.6264 N   0  0  0  0  0  0  0  0  0  0  0  0
   59.6644   -5.8973   -9.4266 C   0  0  0  0  0  0  0  0  0  0  0  0
   58.7959   -5.8473   -8.4013 N   0  0  0  0  0  0  0  0  0  0  0  0
   57.5925   -5.3102   -8.5808 C   0  0  0  0  0  0  0  0  0  0  0  0
   56.8636   -4.7267  -12.5600 H   0  0  0  0  0  0  0  0  0  0  0  0
   58.2233   -3.5521  -12.5345 H   0  0  0  0  0  0  0  0  0  0  0  0
   55.9746   -6.8517   -4.7114 C   0  0  0  0  0  0  0  0  0  0  0  0
   55.8434   -6.7437   -6.0962 O   0  0  0  0  0  0  0  0  0  0  0  0
   56.5062   -5.5317   -6.3248 C   0  0  0  0  0  0  0  0  0  0  0  0
   55.7408   -4.5914   -5.4452 C   0  0  0  0  0  0  0  0  0  0  0  0
   56.5533   -3.5376   -5.0199 O   0  0  0  0  0  0  0  0  0  0  0  0
   55.4374   -5.5119   -4.2523 C   0  0  0  0  0  0  0  0  0  0  0  0
   56.0963   -5.0573   -3.1119 O   0  0  0  0  0  0  0  0  0  0  0  0
   57.4710   -3.9200   -4.9071 H   0  0  0  0  0  0  0  0  0  0  0  0
   55.4587   -4.4382   -2.6481 H   0  0  0  0  0  0  0  0  0  0  0  0
   55.1585   -7.9687   -2.7833 O   0  0  0  0  0  0  0  0  0  0  0  0
   55.1432   -7.9950   -4.1704 C   0  0  0  0  0  0  0  0  0  0  0  0
   54.8429   -7.0706   -2.5156 H   0  0  0  0  0  0  0  0  0  0  0  0
   60.9702   -6.4741   -9.2528 N   0  0  0  0  0  0  0  0  0  0  0  0
   61.4259   -6.9477   -7.9786 C   0  0  0  0  0  0  0  0  0  0  0  0
   62.3019   -8.1741   -8.0872 C   0  0  0  0  0  0  0  0  0  0  0  0
   63.0733   -8.2010   -9.2235 O   0  0  0  0  0  0  0  0  0  0  0  0
   62.3623   -8.0336  -10.3968 C   0  0  0  0  0  0  0  0  0  0  0  0
   61.8592   -6.5842  -10.3926 C   0  0  0  0  0  0  0  0  0  0  0  0
 22 23  1  0  0  0
 23 13  1  0  0  0
 13 14  1  0  0  0
 14 15  1  0  0  0
 15 16  1  0  0  0
 16 17  1  0  0  0
 16 18  1  0  0  0
 18 19  1  0  0  0
 15  1  1  0  0  0
  1  2  1  0  0  0
  2  3  2  0  0  0
  3  4  1  0  0  0
  4  5  2  0  0  0
  5  6  1  0  0  0
  5  7  1  0  0  0
  7  8  2  0  0  0
  8  9  1  0  0  0
  9 10  2  0  0  0
  8 25  1  0  0  0
 25 26  1  0  0  0
 26 27  1  0  0  0
 27 28  1  0  0  0
 28 29  1  0  0  0
 29 30  1  0  0  0
 18 13  1  0  0  0
 10  1  1  0  0  0
 30 25  1  0  0  0
 10  4  1  0  0  0
 22 24  1  0  0  0
 17 20  1  0  0  0
 19 21  1  0  0  0
  6 11  1  0  0  0
  6 12  1  0  0  0
M  END
> <minimizedAffinity>
-6.31153

> <CNNscore>
0.2937079966

> <CNNaffinity>
4.2942771912

> <CNN_VS>
1.2612636089

> <CNNaffinity_variance>
0.7179401517

$$$$
[H]OC([H])([H])[C@@]1([H])O[C@@]([H])(n2c([H])nc3c(N([H])[H])nc([H])nc32)[C@@]([H])(O[H])[C@]1([H])O[H]


 24 26  0  0  0  0  0  0  0  0999 V2000
   55.5086   -7.7514   -4.6840 C   0  0  0  0  0  0  0  0  0  0  0  0
   54.4803   -7.5060   -5.5542 O   0  0  0  0  0  0  0  0  0  0  0  0
   54.8495   -6.5059   -6.4229 C   0  0  0  0  0  0  0  0  0  0  0  0
   56.0585   -5.8140   -5.8580 C   0  0  0  0  0  0  0  0  0  0  0  0
   55.9693   -4.4416   -5.8584 O   0  0  0  0  0  0  0  0  0  0  0  0
   56.0983   -6.3867   -4.4353 C   0  0  0  0  0  0  0  0  0  0  0  0
   57.4054   -6.4133   -4.0172 O   0  0  0  0  0  0  0  0  0  0  0  0
   56.4418   -4.0969   -6.6636 H   0  0  0  0  0  0  0  0  0  0  0  0
   58.0198   -5.9518   -4.6514 H   0  0  0  0  0  0  0  0  0  0  0  0
   53.7926   -5.5691   -6.6901 N   0  0  0  0  0  0  0  0  0  0  0  0
   52.6893   -5.4343   -5.9354 C   0  0  0  0  0  0  0  0  0  0  0  0
   51.8946   -4.4876   -6.4333 N   0  0  0  0  0  0  0  0  0  0  0  0
   52.5080   -4.0023   -7.5393 C   0  0  0  0  0  0  0  0  0  0  0  0
   52.1439   -3.0193   -8.4406 C   0  0  0  0  0  0  0  0  0  0  0  0
   50.9203   -2.3403   -8.2528 N   0  0  0  0  0  0  0  0  0  0  0  0
   52.9743   -2.7476   -9.4659 N   0  0  0  0  0  0  0  0  0  0  0  0
   54.1218   -3.4355   -9.5793 C   0  0  0  0  0  0  0  0  0  0  0  0
   54.4853   -4.3944   -8.7072 N   0  0  0  0  0  0  0  0  0  0  0  0
   53.6924   -4.6917   -7.6818 C   0  0  0  0  0  0  0  0  0  0  0  0
   50.0347   -2.7988   -8.5275 H   0  0  0  0  0  0  0  0  0  0  0  0
   50.9093   -1.4006   -7.8478 H   0  0  0  0  0  0  0  0  0  0  0  0
   56.0631   -8.8803   -2.7193 O   0  0  0  0  0  0  0  0  0  0  0  0
   54.9681   -8.3963   -3.4458 C   0  0  0  0  0  0  0  0  0  0  0  0
   56.4557   -8.0869   -2.2325 H   0  0  0  0  0  0  0  0  0  0  0  0
 22 23  1  0  0  0
 23  1  1  0  0  0
  1  2  1  0  0  0
  2  3  1  0  0  0
  3  4  1  0  0  0
  4  5  1  0  0  0
  4  6  1  0  0  0
  6  7  1  0  0  0
  3 10  1  0  0  0
 10 11  1  0  0  0
 11 12  2  0  0  0
 12 13  1  0  0  0
 13 14  2  0  0  0
 14 15  1  0  0  0
 14 16  1  0  0  0
 16 17  2  0  0  0
 17 18  1  0  0  0
 18 19  2  0  0  0
  6  1  1  0  0  0
 19 10  1  0  0  0
 19 13  1  0  0  0
 22 24  1  0  0  0
  5  8  1  0  0  0
  7  9  1  0  0  0
 15 20  1  0  0  0
 15 21  1  0  0  0
M  END
> <minimizedAffinity>
-7.09010

> <CNNscore>
0.9148793221

> <CNNaffinity>
5.1213235855

> <CNN_VS>
4.6853928566

> <CNNaffinity_variance>
0.1928444207

$$$$
[H]OC([H])([H])[C@@]1([H])O[C@@]([H])(n2c([H])nc3c(N([H])[H])nc([H])nc32)[C@@]([H])(O[H])[C@]1([H])O[H]


 24 26  0  0  0  0  0  0  0  0999 V2000
   56.0407   -5.8895   -6.9352 C   0  0  0  0  0  0  0  0  0  0  0  0
   54.7012   -5.7265   -7.1676 O   0  0  0  0  0  0  0  0  0  0  0  0
   54.5225   -5.1268   -8.3921 C   0  0  0  0  0  0  0  0  0  0  0  0
   55.8374   -4.5419   -8.8264 C   0  0  0  0  0  0  0  0  0  0  0  0
   55.7526   -3.2437   -9.2725 O   0  0  0  0  0  0  0  0  0  0  0  0
   56.6596   -4.6535   -7.5360 C   0  0  0  0  0  0  0  0  0  0  0  0
   57.9807   -4.8027   -7.8777 O   0  0  0  0  0  0  0  0  0  0  0  0
   55.7000   -3.2565  -10.2662 H   0  0  0  0  0  0  0  0  0  0  0  0
   58.1398   -4.6818   -8.8538 H   0  0  0  0  0  0  0  0  0  0  0  0
   53.4867   -4.1302   -8.3889 N   0  0  0  0  0  0  0  0  0  0  0  0
   53.4185   -3.1038   -9.2531 C   0  0  0  0  0  0  0  0  0  0  0  0
   52.3485   -2.3504   -9.0014 N   0  0  0  0  0  0  0  0  0  0  0  0
   51.7135   -2.9118   -7.9447 C   0  0  0  0  0  0  0  0  0  0  0  0
   50.5634   -2.5575   -7.2643 C   0  0  0  0  0  0  0  0  0  0  0  0
   49.8515   -1.4105   -7.6777 N   0  0  0  0  0  0  0  0  0  0  0  0
   50.1665   -3.3239   -6.2299 N   0  0  0  0  0  0  0  0  0  0  0  0
   50.8955   -4.4004   -5.8948 C   0  0  0  0  0  0  0  0  0  0  0  0
   52.0166   -4.7537   -6.5509 N   0  0  0  0  0  0  0  0  0  0  0  0
   52.4411   -4.0227   -7.5774 C   0  0  0  0  0  0  0  0  0  0  0  0
   50.1952   -0.4723   -7.4099 H   0  0  0  0  0  0  0  0  0  0  0  0
   49.0009   -1.5063   -8.2386 H   0  0  0  0  0  0  0  0  0  0  0  0
   57.5236   -6.6296   -5.2935 O   0  0  0  0  0  0  0  0  0  0  0  0
   56.2778   -6.0130   -5.4622 C   0  0  0  0  0  0  0  0  0  0  0  0
   58.2191   -5.9092   -5.4273 H   0  0  0  0  0  0  0  0  0  0  0  0
 22 23  1  0  0  0
 23  1  1  0  0  0
  1  2  1  0  0  0
  2  3  1  0  0  0
  3  4  1  0  0  0
  4  5  1  0  0  0
  4  6  1  0  0  0
  6  7  1  0  0  0
  3 10  1  0  0  0
 10 11  1  0  0  0
 11 12  2  0  0  0
 12 13  1  0  0  0
 13 14  2  0  0  0
 14 15  1  0  0  0
 14 16  1  0  0  0
 16 17  2  0  0  0
 17 18  1  0  0  0
 18 19  2  0  0  0
  6  1  1  0  0  0
 19 10  1  0  0  0
 19 13  1  0  0  0
 22 24  1  0  0  0
  5  8  1  0  0  0
  7  9  1  0  0  0
 15 20  1  0  0  0
 15 21  1  0  0  0
M  END
> <minimizedAffinity>
-7.74101

> <CNNscore>
0.7524398565

> <CNNaffinity>
5.1046762466

> <CNN_VS>
3.8409619331

> <CNNaffinity_variance>
0.1705505550

$$$$
[H]OC([H])([H])[C@@]1([H])O[C@@]([H])(n2c([H])nc3c(N([H])[H])nc([H])nc32)[C@@]([H])(O[H])[C@]1([H])O[H]


 24 26  0  0  0  0  0  0  0  0999 V2000
   51.9153   -7.0594   -2.7411 C   0  0  0  0  0  0  0  0  0  0  0  0
   51.2559   -6.7057   -3.8877 O   0  0  0  0  0  0  0  0  0  0  0  0
   52.1739   -6.4543   -4.8803 C   0  0  0  0  0  0  0  0  0  0  0  0
   53.5248   -6.2903   -4.2418 C   0  0  0  0  0  0  0  0  0  0  0  0
   54.2163   -5.1818   -4.6716 O   0  0  0  0  0  0  0  0  0  0  0  0
   53.1487   -6.1931   -2.7577 C   0  0  0  0  0  0  0  0  0  0  0  0
   54.1895   -6.6929   -2.0152 O   0  0  0  0  0  0  0  0  0  0  0  0
   54.8503   -5.4647   -5.3845 H   0  0  0  0  0  0  0  0  0  0  0  0
   54.9953   -6.8876   -2.5678 H   0  0  0  0  0  0  0  0  0  0  0  0
   51.8383   -5.3122   -5.6860 N   0  0  0  0  0  0  0  0  0  0  0  0
   50.8026   -4.4912   -5.4446 C   0  0  0  0  0  0  0  0  0  0  0  0
   50.7472   -3.5257   -6.3615 N   0  0  0  0  0  0  0  0  0  0  0  0
   51.7783   -3.7355   -7.2146 C   0  0  0  0  0  0  0  0  0  0  0  0
   52.1993   -3.0513   -8.3396 C   0  0  0  0  0  0  0  0  0  0  0  0
   51.4813   -1.9077   -8.7518 N   0  0  0  0  0  0  0  0  0  0  0  0
   53.2822   -3.5050   -9.0003 N   0  0  0  0  0  0  0  0  0  0  0  0
   53.9141   -4.5999   -8.5481 C   0  0  0  0  0  0  0  0  0  0  0  0
   53.5121   -5.2730   -7.4538 N   0  0  0  0  0  0  0  0  0  0  0  0
   52.4474   -4.8566   -6.7745 C   0  0  0  0  0  0  0  0  0  0  0  0
   50.5884   -2.0218   -9.2615 H   0  0  0  0  0  0  0  0  0  0  0  0
   51.8415   -0.9718   -8.5480 H   0  0  0  0  0  0  0  0  0  0  0  0
   50.7363   -8.0489   -0.9882 O   0  0  0  0  0  0  0  0  0  0  0  0
   51.0303   -6.8052   -1.5607 C   0  0  0  0  0  0  0  0  0  0  0  0
   51.5405   -8.3047   -0.4328 H   0  0  0  0  0  0  0  0  0  0  0  0
 22 23  1  0  0  0
 23  1  1  0  0  0
  1  2  1  0  0  0
  2  3  1  0  0  0
  3  4  1  0  0  0
  4  5  1  0  0  0
  4  6  1  0  0  0
  6  7  1  0  0  0
  3 10  1  0  0  0
 10 11  1  0  0  0
 11 12  2  0  0  0
 12 13  1  0  0  0
 13 14  2  0  0  0
 14 15  1  0  0  0
 14 16  1  0  0  0
 16 17  2  0  0  0
 17 18  1  0  0  0
 18 19  2  0  0  0
  6  1  1  0  0  0
 19 10  1  0  0  0
 19 13  1  0  0  0
 22 24  1  0  0  0
  5  8  1  0  0  0
  7  9  1  0  0  0
 15 20  1  0  0  0
 15 21  1  0  0  0
M  END
> <minimizedAffinity>
-6.29171

> <CNNscore>
0.6236501932

> <CNNaffinity>
4.8648648262

> <CNN_VS>
3.0339739323

> <CNNaffinity_variance>
0.1924376786

$$$$
[H]OC([H])([H])[C@@]1([H])O[C@@]([H])(n2c([H])nc3c(N([H])[H])nc([H])nc32)[C@@]([H])(O[H])[C@]1([H])O[H]


 24 26  0  0  0  0  0  0  0  0999 V2000
   52.0028   -6.8726   -2.8539 C   0  0  0  0  0  0  0  0  0  0  0  0
   51.6310   -6.7063   -4.1611 O   0  0  0  0  0  0  0  0  0  0  0  0
   52.7567   -6.5757   -4.9402 C   0  0  0  0  0  0  0  0  0  0  0  0
   53.9229   -6.2842   -4.0376 C   0  0  0  0  0  0  0  0  0  0  0  0
   54.7031   -5.2308   -4.4535 O   0  0  0  0  0  0  0  0  0  0  0  0
   53.2121   -5.9842   -2.7115 C   0  0  0  0  0  0  0  0  0  0  0  0
   54.0478   -6.3427   -1.6832 O   0  0  0  0  0  0  0  0  0  0  0  0
   55.4837   -5.5961   -4.9509 H   0  0  0  0  0  0  0  0  0  0  0  0
   54.9588   -6.5930   -1.9997 H   0  0  0  0  0  0  0  0  0  0  0  0
   52.6260   -5.5715   -5.9603 N   0  0  0  0  0  0  0  0  0  0  0  0
   53.4905   -5.4035   -6.9749 C   0  0  0  0  0  0  0  0  0  0  0  0
   53.1046   -4.3955   -7.7564 N   0  0  0  0  0  0  0  0  0  0  0  0
   51.9591   -3.9043   -7.2258 C   0  0  0  0  0  0  0  0  0  0  0  0
   51.1303   -2.8691   -7.6167 C   0  0  0  0  0  0  0  0  0  0  0  0
   51.4603   -2.1299   -8.7735 N   0  0  0  0  0  0  0  0  0  0  0  0
   50.0367   -2.6061   -6.8753 N   0  0  0  0  0  0  0  0  0  0  0  0
   49.7879   -3.3526   -5.7875 C   0  0  0  0  0  0  0  0  0  0  0  0
   50.5885   -4.3626   -5.3986 N   0  0  0  0  0  0  0  0  0  0  0  0
   51.6776   -4.6532   -6.1042 C   0  0  0  0  0  0  0  0  0  0  0  0
   52.1973   -1.4058   -8.7235 H   0  0  0  0  0  0  0  0  0  0  0  0
   50.9738   -2.3090   -9.6558 H   0  0  0  0  0  0  0  0  0  0  0  0
   51.1737   -6.9368   -0.6743 O   0  0  0  0  0  0  0  0  0  0  0  0
   50.8689   -6.4751   -1.9607 C   0  0  0  0  0  0  0  0  0  0  0  0
   51.8245   -6.2726   -0.2794 H   0  0  0  0  0  0  0  0  0  0  0  0
 22 23  1  0  0  0
 23  1  1  0  0  0
  1  2  1  0  0  0
  2  3  1  0  0  0
  3  4  1  0  0  0
  4  5  1  0  0  0
  4  6  1  0  0  0
  6  7  1  0  0  0
  3 10  1  0  0  0
 10 11  1  0  0  0
 11 12  2  0  0  0
 12 13  1  0  0  0
 13 14  2  0  0  0
 14 15  1  0  0  0
 14 16  1  0  0  0
 16 17  2  0  0  0
 17 18  1  0  0  0
 18 19  2  0  0  0
  6  1  1  0  0  0
 19 10  1  0  0  0
 19 13  1  0  0  0
 22 24  1  0  0  0
  5  8  1  0  0  0
  7  9  1  0  0  0
 15 20  1  0  0  0
 15 21  1  0  0  0
M  END
> <minimizedAffinity>
-6.77762

> <CNNscore>
0.6137713790

> <CNNaffinity>
4.8737254143

> <CNN_VS>
2.9913532734

> <CNNaffinity_variance>
0.1910585463

$$$$
[H]OC([H])([H])[C@@]1([H])O[C@@]([H])(n2c([H])nc3c(N([H])[H])nc([H])nc32)[C@@]([H])(O[H])[C@]1([H])O[H]


 24 26  0  0  0  0  0  0  0  0999 V2000
   55.5284   -7.6339   -4.7804 C   0  0  0  0  0  0  0  0  0  0  0  0
   54.6762   -7.4035   -5.8270 O   0  0  0  0  0  0  0  0  0  0  0  0
   55.1449   -6.3453   -6.5697 C   0  0  0  0  0  0  0  0  0  0  0  0
   56.1755   -5.6167   -5.7532 C   0  0  0  0  0  0  0  0  0  0  0  0
   56.0033   -4.2526   -5.7224 O   0  0  0  0  0  0  0  0  0  0  0  0
   55.9727   -6.2528   -4.3719 C   0  0  0  0  0  0  0  0  0  0  0  0
   57.1725   -6.2288   -3.7054 O   0  0  0  0  0  0  0  0  0  0  0  0
   56.6013   -3.8456   -6.4057 H   0  0  0  0  0  0  0  0  0  0  0  0
   57.8689   -5.7056   -4.1892 H   0  0  0  0  0  0  0  0  0  0  0  0
   54.1043   -5.4550   -7.0065 N   0  0  0  0  0  0  0  0  0  0  0  0
   54.1600   -4.7141   -8.1259 C   0  0  0  0  0  0  0  0  0  0  0  0
   53.0494   -3.9905   -8.2637 N   0  0  0  0  0  0  0  0  0  0  0  0
   52.2601   -4.2773   -7.2009 C   0  0  0  0  0  0  0  0  0  0  0  0
   51.0076   -3.8231   -6.8321 C   0  0  0  0  0  0  0  0  0  0  0  0
   50.3520   -2.8831   -7.6567 N   0  0  0  0  0  0  0  0  0  0  0  0
   50.4604   -4.2975   -5.6960 N   0  0  0  0  0  0  0  0  0  0  0  0
   51.1444   -5.1904   -4.9629 C   0  0  0  0  0  0  0  0  0  0  0  0
   52.3643   -5.6389   -5.3134 N   0  0  0  0  0  0  0  0  0  0  0  0
   52.9379   -5.1945   -6.4278 C   0  0  0  0  0  0  0  0  0  0  0  0
   50.6297   -1.8875   -7.6164 H   0  0  0  0  0  0  0  0  0  0  0  0
   49.6070   -3.1844   -8.2903 H   0  0  0  0  0  0  0  0  0  0  0  0
   55.7633   -8.8990   -2.8345 O   0  0  0  0  0  0  0  0  0  0  0  0
   54.7981   -8.3645   -3.6969 C   0  0  0  0  0  0  0  0  0  0  0  0
   56.0611   -8.1421   -2.2353 H   0  0  0  0  0  0  0  0  0  0  0  0
 22 23  1  0  0  0
 23  1  1  0  0  0
  1  2  1  0  0  0
  2  3  1  0  0  0
  3  4  1  0  0  0
  4  5  1  0  0  0
  4  6  1  0  0  0
  6  7  1  0  0  0
  3 10  1  0  0  0
 10 11  1  0  0  0
 11 12  2  0  0  0
 12 13  1  0  0  0
 13 14  2  0  0  0
 14 15  1  0  0  0
 14 16  1  0  0  0
 16 17  2  0  0  0
 17 18  1  0  0  0
 18 19  2  0  0  0
  6  1  1  0  0  0
 19 10  1  0  0  0
 19 13  1  0  0  0
 22 24  1  0  0  0
  5  8  1  0  0  0
  7  9  1  0  0  0
 15 20  1  0  0  0
 15 21  1  0  0  0
M  END
> <minimizedAffinity>
-6.74578

> <CNNscore>
0.5737599134

> <CNNaffinity>
4.6769781113

> <CNN_VS>
2.6834626198

> <CNNaffinity_variance>
0.1827529967

$$$$
[H]OC([H])([H])[C@@]1([H])O[C@@]([H])(n2c([H])nc3c(N([H])[H])nc([H])nc32)[C@@]([H])(O[H])[C@]1([H])O[H]


 24 26  0  0  0  0  0  0  0  0999 V2000
   52.2726   -8.1421   -1.3982 C   0  0  0  0  0  0  0  0  0  0  0  0
   51.4328   -7.8199   -2.4305 O   0  0  0  0  0  0  0  0  0  0  0  0
   52.0858   -6.9801   -3.3020 C   0  0  0  0  0  0  0  0  0  0  0  0
   53.3060   -6.4398   -2.6101 C   0  0  0  0  0  0  0  0  0  0  0  0
   53.4559   -5.0773   -2.7223 O   0  0  0  0  0  0  0  0  0  0  0  0
   53.0488   -6.8720   -1.1607 C   0  0  0  0  0  0  0  0  0  0  0  0
   54.2610   -7.0675   -0.5471 O   0  0  0  0  0  0  0  0  0  0  0  0
   54.0877   -4.8918   -3.4684 H   0  0  0  0  0  0  0  0  0  0  0  0
   55.0277   -6.7735   -1.1115 H   0  0  0  0  0  0  0  0  0  0  0  0
   51.2538   -5.9161   -3.7937 N   0  0  0  0  0  0  0  0  0  0  0  0
   50.2243   -5.3824   -3.1152 C   0  0  0  0  0  0  0  0  0  0  0  0
   49.6450   -4.4165   -3.8274 N   0  0  0  0  0  0  0  0  0  0  0  0
   50.3243   -4.3298   -4.9961 C   0  0  0  0  0  0  0  0  0  0  0  0
   50.1637   -3.5114   -6.0986 C   0  0  0  0  0  0  0  0  0  0  0  0
   49.1231   -2.5571   -6.0948 N   0  0  0  0  0  0  0  0  0  0  0  0
   51.0098   -3.6578   -7.1367 N   0  0  0  0  0  0  0  0  0  0  0  0
   51.9759   -4.5876   -7.0681 C   0  0  0  0  0  0  0  0  0  0  0  0
   52.1405   -5.3893   -5.9992 N   0  0  0  0  0  0  0  0  0  0  0  0
   51.3255   -5.2755   -4.9547 C   0  0  0  0  0  0  0  0  0  0  0  0
   48.1526   -2.8595   -6.2861 H   0  0  0  0  0  0  0  0  0  0  0  0
   49.3274   -1.5727   -5.9041 H   0  0  0  0  0  0  0  0  0  0  0  0
   50.3738   -7.6947   -0.1190 O   0  0  0  0  0  0  0  0  0  0  0  0
   51.4627   -8.5701   -0.2141 C   0  0  0  0  0  0  0  0  0  0  0  0
   49.6954   -8.0083   -0.7986 H   0  0  0  0  0  0  0  0  0  0  0  0
 22 23  1  0  0  0
 23  1  1  0  0  0
  1  2  1  0  0  0
  2  3  1  0  0  0
  3  4  1  0  0  0
  4  5  1  0  0  0
  4  6  1  0  0  0
  6  7  1  0  0  0
  3 10  1  0  0  0
 10 11  1  0  0  0
 11 12  2  0  0  0
 12 13  1  0  0  0
 13 14  2  0  0  0
 14 15  1  0  0  0
 14 16  1  0  0  0
 16 17  2  0  0  0
 17 18  1  0  0  0
 18 19  2  0  0  0
  6  1  1  0  0  0
 19 10  1  0  0  0
 19 13  1  0  0  0
 22 24  1  0  0  0
  5  8  1  0  0  0
  7  9  1  0  0  0
 15 20  1  0  0  0
 15 21  1  0  0  0
M  END
> <minimizedAffinity>
-6.09374

> <CNNscore>
0.5371123552

> <CNNaffinity>
4.6015462875

> <CNN_VS>
2.4715473652

> <CNNaffinity_variance>
0.1869020164

$$$$
[H]OC([H])([H])[C@@]1([H])O[C@@]([H])(n2c([H])nc3c(N([H])[H])nc([H])nc32)[C@@]([H])(O[H])[C@]1([H])O[H]


 24 26  0  0  0  0  0  0  0  0999 V2000
   55.6853   -6.0827   -2.9589 C   0  0  0  0  0  0  0  0  0  0  0  0
   55.5198   -5.1359   -3.9341 O   0  0  0  0  0  0  0  0  0  0  0  0
   54.7971   -5.6751   -4.9725 C   0  0  0  0  0  0  0  0  0  0  0  0
   54.7968   -7.1705   -4.8195 C   0  0  0  0  0  0  0  0  0  0  0  0
   55.1083   -7.8513   -5.9731 O   0  0  0  0  0  0  0  0  0  0  0  0
   55.8622   -7.3641   -3.7327 C   0  0  0  0  0  0  0  0  0  0  0  0
   55.5492   -8.4933   -3.0178 O   0  0  0  0  0  0  0  0  0  0  0  0
   54.2596   -8.1331   -6.4097 H   0  0  0  0  0  0  0  0  0  0  0  0
   54.7954   -9.0051   -3.4210 H   0  0  0  0  0  0  0  0  0  0  0  0
   55.2878   -5.2856   -6.2662 N   0  0  0  0  0  0  0  0  0  0  0  0
   56.5645   -5.4153   -6.6641 C   0  0  0  0  0  0  0  0  0  0  0  0
   56.7138   -4.9683   -7.9106 N   0  0  0  0  0  0  0  0  0  0  0  0
   55.4963   -4.5402   -8.3222 C   0  0  0  0  0  0  0  0  0  0  0  0
   55.0668   -3.9863   -9.5137 C   0  0  0  0  0  0  0  0  0  0  0  0
   56.0025   -3.7933  -10.5533 N   0  0  0  0  0  0  0  0  0  0  0  0
   53.7676   -3.6515   -9.6357 N   0  0  0  0  0  0  0  0  0  0  0  0
   52.9365   -3.8650   -8.6031 C   0  0  0  0  0  0  0  0  0  0  0  0
   53.3449   -4.4037   -7.4390 N   0  0  0  0  0  0  0  0  0  0  0  0
   54.6196   -4.7474   -7.2797 C   0  0  0  0  0  0  0  0  0  0  0  0
   56.6512   -2.9886  -10.5132 H   0  0  0  0  0  0  0  0  0  0  0  0
   56.0388   -4.4449  -11.3415 H   0  0  0  0  0  0  0  0  0  0  0  0
   56.8036   -4.3554   -1.8599 O   0  0  0  0  0  0  0  0  0  0  0  0
   56.8742   -5.7295   -2.1205 C   0  0  0  0  0  0  0  0  0  0  0  0
   56.1380   -4.2413   -1.1085 H   0  0  0  0  0  0  0  0  0  0  0  0
 22 23  1  0  0  0
 23  1  1  0  0  0
  1  2  1  0  0  0
  2  3  1  0  0  0
  3  4  1  0  0  0
  4  5  1  0  0  0
  4  6  1  0  0  0
  6  7  1  0  0  0
  3 10  1  0  0  0
 10 11  1  0  0  0
 11 12  2  0  0  0
 12 13  1  0  0  0
 13 14  2  0  0  0
 14 15  1  0  0  0
 14 16  1  0  0  0
 16 17  2  0  0  0
 17 18  1  0  0  0
 18 19  2  0  0  0
  6  1  1  0  0  0
 19 10  1  0  0  0
 19 13  1  0  0  0
 22 24  1  0  0  0
  5  8  1  0  0  0
  7  9  1  0  0  0
 15 20  1  0  0  0
 15 21  1  0  0  0
M  END
> <minimizedAffinity>
-6.81710

> <CNNscore>
0.4436379373

> <CNNaffinity>
4.4079961777

> <CNN_VS>
1.9555543661

> <CNNaffinity_variance>
0.3958174586

$$$$
[H]OC([H])([H])[C@@]1([H])O[C@@]([H])(n2c([H])nc3c(N([H])[H])nc([H])nc32)[C@@]([H])(O[H])[C@]1([H])O[H]


 24 26  0  0  0  0  0  0  0  0999 V2000
   53.2353   -6.9714   -2.3893 C   0  0  0  0  0  0  0  0  0  0  0  0
   52.6163   -6.9275   -3.6098 O   0  0  0  0  0  0  0  0  0  0  0  0
   53.5246   -6.5376   -4.5658 C   0  0  0  0  0  0  0  0  0  0  0  0
   54.7192   -5.9493   -3.8683 C   0  0  0  0  0  0  0  0  0  0  0  0
   55.1322   -4.7439   -4.3858 O   0  0  0  0  0  0  0  0  0  0  0  0
   54.1938   -5.8090   -2.4338 C   0  0  0  0  0  0  0  0  0  0  0  0
   55.2552   -5.9297   -1.5718 O   0  0  0  0  0  0  0  0  0  0  0  0
   55.8821   -4.9143   -5.0175 H   0  0  0  0  0  0  0  0  0  0  0  0
   56.1319   -5.9529   -2.0446 H   0  0  0  0  0  0  0  0  0  0  0  0
   52.9776   -5.6168   -5.5245 N   0  0  0  0  0  0  0  0  0  0  0  0
   51.7569   -5.0631   -5.4340 C   0  0  0  0  0  0  0  0  0  0  0  0
   51.5323   -4.2536   -6.4685 N   0  0  0  0  0  0  0  0  0  0  0  0
   52.6426   -4.2907   -7.2436 C   0  0  0  0  0  0  0  0  0  0  0  0
   52.9629   -3.6543   -8.4283 C   0  0  0  0  0  0  0  0  0  0  0  0
   52.0172   -2.7843   -9.0134 N   0  0  0  0  0  0  0  0  0  0  0  0
   54.1693   -3.8906   -8.9794 N   0  0  0  0  0  0  0  0  0  0  0  0
   55.0167   -4.7312   -8.3646 C   0  0  0  0  0  0  0  0  0  0  0  0
   54.7143   -5.3556   -7.2109 N   0  0  0  0  0  0  0  0  0  0  0  0
   53.5334   -5.1482   -6.6359 C   0  0  0  0  0  0  0  0  0  0  0  0
   51.2195   -3.1780   -9.5413 H   0  0  0  0  0  0  0  0  0  0  0  0
   52.1200   -1.7708   -8.9161 H   0  0  0  0  0  0  0  0  0  0  0  0
   52.5022   -5.6854   -0.5864 O   0  0  0  0  0  0  0  0  0  0  0  0
   52.2083   -6.8496   -1.3069 C   0  0  0  0  0  0  0  0  0  0  0  0
   52.1394   -4.9146   -1.1293 H   0  0  0  0  0  0  0  0  0  0  0  0
 22 23  1  0  0  0
 23  1  1  0  0  0
  1  2  1  0  0  0
  2  3  1  0  0  0
  3  4  1  0  0  0
  4  5  1  0  0  0
  4  6  1  0  0  0
  6  7  1  0  0  0
  3 10  1  0  0  0
 10 11  1  0  0  0
 11 12  2  0  0  0
 12 13  1  0  0  0
 13 14  2  0  0  0
 14 15  1  0  0  0
 14 16  1  0  0  0
 16 17  2  0  0  0
 17 18  1  0  0  0
 18 19  2  0  0  0
  6  1  1  0  0  0
 19 10  1  0  0  0
 19 13  1  0  0  0
 22 24  1  0  0  0
  5  8  1  0  0  0
  7  9  1  0  0  0
 15 20  1  0  0  0
 15 21  1  0  0  0
M  END
> <minimizedAffinity>
-6.10637

> <CNNscore>
0.3277680874

> <CNNaffinity>
4.2742018700

> <CNN_VS>
1.4009469748

> <CNNaffinity_variance>
0.3079459965

$$$$
[H]OC([H])([H])[C@@]1([H])O[C@@]([H])(n2c([H])nc3c(N([H])[H])nc([H])nc32)[C@@]([H])(O[H])[C@]1([H])O[H]


 24 26  0  0  0  0  0  0  0  0999 V2000
   53.5848   -6.8209   -3.0272 C   0  0  0  0  0  0  0  0  0  0  0  0
   53.8701   -7.0132   -4.3524 O   0  0  0  0  0  0  0  0  0  0  0  0
   55.1632   -6.6163   -4.6008 C   0  0  0  0  0  0  0  0  0  0  0  0
   55.6316   -5.7842   -3.4398 C   0  0  0  0  0  0  0  0  0  0  0  0
   56.2354   -4.6037   -3.8046 O   0  0  0  0  0  0  0  0  0  0  0  0
   54.3163   -5.5479   -2.6862 C   0  0  0  0  0  0  0  0  0  0  0  0
   54.6027   -5.4115   -1.3507 O   0  0  0  0  0  0  0  0  0  0  0  0
   57.2211   -4.7407   -3.7984 H   0  0  0  0  0  0  0  0  0  0  0  0
   55.5818   -5.3667   -1.1716 H   0  0  0  0  0  0  0  0  0  0  0  0
   55.3090   -5.9052   -5.8414 N   0  0  0  0  0  0  0  0  0  0  0  0
   56.4845   -5.6711   -6.4483 C   0  0  0  0  0  0  0  0  0  0  0  0
   56.3001   -4.9903   -7.5790 N   0  0  0  0  0  0  0  0  0  0  0  0
   54.9668   -4.7831   -7.6988 C   0  0  0  0  0  0  0  0  0  0  0  0
   54.2158   -4.1402   -8.6652 C   0  0  0  0  0  0  0  0  0  0  0  0
   54.8766   -3.5614   -9.7705 N   0  0  0  0  0  0  0  0  0  0  0  0
   52.8781   -4.0917   -8.5130 N   0  0  0  0  0  0  0  0  0  0  0  0
   52.3203   -4.6653   -7.4348 C   0  0  0  0  0  0  0  0  0  0  0  0
   53.0428   -5.2935   -6.4884 N   0  0  0  0  0  0  0  0  0  0  0  0
   54.3658   -5.3627   -6.6028 C   0  0  0  0  0  0  0  0  0  0  0  0
   55.3547   -2.6508   -9.6597 H   0  0  0  0  0  0  0  0  0  0  0  0
   54.8828   -4.0393  -10.6754 H   0  0  0  0  0  0  0  0  0  0  0  0
   51.8766   -5.9484   -1.6996 O   0  0  0  0  0  0  0  0  0  0  0  0
   52.1021   -6.7167   -2.8484 C   0  0  0  0  0  0  0  0  0  0  0  0
   51.9930   -4.9832   -1.9743 H   0  0  0  0  0  0  0  0  0  0  0  0
 22 23  1  0  0  0
 23  1  1  0  0  0
  1  2  1  0  0  0
  2  3  1  0  0  0
  3  4  1  0  0  0
  4  5  1  0  0  0
  4  6  1  0  0  0
  6  7  1  0  0  0
  3 10  1  0  0  0
 10 11  1  0  0  0
 11 12  2  0  0  0
 12 13  1  0  0  0
 13 14  2  0  0  0
 14 15  1  0  0  0
 14 16  1  0  0  0
 16 17  2  0  0  0
 17 18  1  0  0  0
 18 19  2  0  0  0
  6  1  1  0  0  0
 19 10  1  0  0  0
 19 13  1  0  0  0
 22 24  1  0  0  0
  5  8  1  0  0  0
  7  9  1  0  0  0
 15 20  1  0  0  0
 15 21  1  0  0  0
M  END
> <minimizedAffinity>
-6.01029

> <CNNscore>
0.3181080818

> <CNNaffinity>
4.2739400864

> <CNN_VS>
1.3595749140

> <CNNaffinity_variance>
0.3849345148

$$$$
[H]OC([H])([H])[C@@]1([H])O[C@@]([H])(n2c([H])nc3c(N([H])C([H])([H])c4c([H])c([H])c([H])c([H])c4[H])nc([H])nc32)[C@@]([H])(O[H])[C@]1([H])O[H]


 30 33  0  0  0  0  0  0  0  0999 V2000
   55.4386   -5.0500   -6.5265 N   0  0  0  0  0  0  0  0  0  0  0  0
   56.7569   -5.1647   -6.8450 C   0  0  0  0  0  0  0  0  0  0  0  0
   56.9485   -4.7317   -8.0899 N   0  0  0  0  0  0  0  0  0  0  0  0
   55.7697   -4.3251   -8.6157 C   0  0  0  0  0  0  0  0  0  0  0  0
   55.3891   -3.7977   -9.8415 C   0  0  0  0  0  0  0  0  0  0  0  0
   54.1100   -3.5014  -10.0259 N   0  0  0  0  0  0  0  0  0  0  0  0
   53.1972   -3.6971   -9.0721 C   0  0  0  0  0  0  0  0  0  0  0  0
   53.5806   -4.2066   -7.8952 N   0  0  0  0  0  0  0  0  0  0  0  0
   54.8496   -4.5418   -7.6025 C   0  0  0  0  0  0  0  0  0  0  0  0
   54.7568   -5.7343   -3.1656 C   0  0  0  0  0  0  0  0  0  0  0  0
   55.5558   -5.2068   -4.1712 O   0  0  0  0  0  0  0  0  0  0  0  0
   54.7750   -5.3912   -5.3027 C   0  0  0  0  0  0  0  0  0  0  0  0
   54.4401   -6.8686   -5.2030 C   0  0  0  0  0  0  0  0  0  0  0  0
   55.6213   -7.5853   -5.4528 O   0  0  0  0  0  0  0  0  0  0  0  0
   54.0831   -6.9577   -3.7128 C   0  0  0  0  0  0  0  0  0  0  0  0
   52.6929   -6.7504   -3.6273 O   0  0  0  0  0  0  0  0  0  0  0  0
   56.2694   -7.2499   -4.7579 H   0  0  0  0  0  0  0  0  0  0  0  0
   52.4977   -5.7617   -3.6154 H   0  0  0  0  0  0  0  0  0  0  0  0
   56.0098   -4.8442   -1.3696 O   0  0  0  0  0  0  0  0  0  0  0  0
   55.5307   -6.0245   -1.8990 C   0  0  0  0  0  0  0  0  0  0  0  0
   55.3189   -4.4772   -0.7448 H   0  0  0  0  0  0  0  0  0  0  0  0
   56.3910   -3.5976  -10.8496 N   0  0  0  0  0  0  0  0  0  0  0  0
   56.8579   -2.6724  -10.9238 H   0  0  0  0  0  0  0  0  0  0  0  0
   56.6777   -4.7295  -11.6971 C   0  0  0  0  0  0  0  0  0  0  0  0
   56.8042   -4.4030  -13.1253 C   0  0  0  0  0  0  0  0  0  0  0  0
   57.7500   -3.5536  -13.6239 C   0  0  0  0  0  0  0  0  0  0  0  0
   57.8519   -3.2638  -14.9911 C   0  0  0  0  0  0  0  0  0  0  0  0
   56.9653   -3.8576  -15.8629 C   0  0  0  0  0  0  0  0  0  0  0  0
   55.9958   -4.7211  -15.3983 C   0  0  0  0  0  0  0  0  0  0  0  0
   55.9300   -4.9781  -14.0527 C   0  0  0  0  0  0  0  0  0  0  0  0
 19 20  1  0  0  0
 20 10  1  0  0  0
 10 11  1  0  0  0
 11 12  1  0  0  0
 12 13  1  0  0  0
 13 14  1  0  0  0
 13 15  1  0  0  0
 15 16  1  0  0  0
 12  1  1  0  0  0
  1  2  1  0  0  0
  2  3  2  0  0  0
  3  4  1  0  0  0
  4  5  2  0  0  0
  5 22  1  0  0  0
 22 24  1  0  0  0
 24 25  1  0  0  0
 25 26  2  0  0  0
 26 27  1  0  0  0
 27 28  2  0  0  0
 28 29  1  0  0  0
 29 30  2  0  0  0
  5  6  1  0  0  0
  6  7  2  0  0  0
  7  8  1  0  0  0
  8  9  2  0  0  0
 15 10  1  0  0  0
  9  1  1  0  0  0
  9  4  1  0  0  0
 30 25  1  0  0  0
 19 21  1  0  0  0
 14 17  1  0  0  0
 16 18  1  0  0  0
 22 23  1  0  0  0
M  END
> <minimizedAffinity>
-7.36631

> <CNNscore>
0.5608313084

> <CNNaffinity>
5.4009609222

> <CNN_VS>
3.0290279388

> <CNNaffinity_variance>
0.1819612533

$$$$
[H]OC([H])([H])[C@@]1([H])O[C@@]([H])(n2c([H])nc3c(N([H])C([H])([H])c4c([H])c([H])c([H])c([H])c4[H])nc([H])nc32)[C@@]([H])(O[H])[C@]1([H])O[H]


 30 33  0  0  0  0  0  0  0  0999 V2000
   54.2790   -5.8752   -5.2839 N   0  0  0  0  0  0  0  0  0  0  0  0
   55.5488   -5.7615   -5.7606 C   0  0  0  0  0  0  0  0  0  0  0  0
   55.5430   -4.9975   -6.8515 N   0  0  0  0  0  0  0  0  0  0  0  0
   54.2787   -4.5937   -7.1163 C   0  0  0  0  0  0  0  0  0  0  0  0
   53.7028   -3.8048   -8.1020 C   0  0  0  0  0  0  0  0  0  0  0  0
   52.3924   -3.6074   -8.0601 N   0  0  0  0  0  0  0  0  0  0  0  0
   51.6296   -4.1434   -7.1050 C   0  0  0  0  0  0  0  0  0  0  0  0
   52.2006   -4.9020   -6.1614 N   0  0  0  0  0  0  0  0  0  0  0  0
   53.5182   -5.1662   -6.1094 C   0  0  0  0  0  0  0  0  0  0  0  0
   53.1036   -6.6919   -2.0932 C   0  0  0  0  0  0  0  0  0  0  0  0
   53.3557   -5.7809   -3.1104 O   0  0  0  0  0  0  0  0  0  0  0  0
   53.8088   -6.5956   -4.1374 C   0  0  0  0  0  0  0  0  0  0  0  0
   54.9056   -7.3808   -3.4409 C   0  0  0  0  0  0  0  0  0  0  0  0
   55.9621   -6.4919   -3.1860 O   0  0  0  0  0  0  0  0  0  0  0  0
   54.1890   -7.7267   -2.1284 C   0  0  0  0  0  0  0  0  0  0  0  0
   53.5756   -8.9779   -2.3319 O   0  0  0  0  0  0  0  0  0  0  0  0
   55.5460   -5.7611   -2.6307 H   0  0  0  0  0  0  0  0  0  0  0  0
   52.6846   -8.8489   -2.7849 H   0  0  0  0  0  0  0  0  0  0  0  0
   54.2210   -6.0051   -0.1265 O   0  0  0  0  0  0  0  0  0  0  0  0
   52.9844   -6.0325   -0.7374 C   0  0  0  0  0  0  0  0  0  0  0  0
   54.6816   -5.1556   -0.3884 H   0  0  0  0  0  0  0  0  0  0  0  0
   54.5462   -3.2408   -9.1172 N   0  0  0  0  0  0  0  0  0  0  0  0
   55.0160   -2.3314   -8.9386 H   0  0  0  0  0  0  0  0  0  0  0  0
   54.6787   -4.0056  -10.3334 C   0  0  0  0  0  0  0  0  0  0  0  0
   56.0660   -4.2046  -10.7783 C   0  0  0  0  0  0  0  0  0  0  0  0
   57.0166   -4.8330  -10.0259 C   0  0  0  0  0  0  0  0  0  0  0  0
   58.3311   -5.0142  -10.4766 C   0  0  0  0  0  0  0  0  0  0  0  0
   58.6758   -4.5406  -11.7238 C   0  0  0  0  0  0  0  0  0  0  0  0
   57.7444   -3.9004  -12.5137 C   0  0  0  0  0  0  0  0  0  0  0  0
   56.4687   -3.7435  -12.0355 C   0  0  0  0  0  0  0  0  0  0  0  0
 19 20  1  0  0  0
 20 10  1  0  0  0
 10 11  1  0  0  0
 11 12  1  0  0  0
 12 13  1  0  0  0
 13 14  1  0  0  0
 13 15  1  0  0  0
 15 16  1  0  0  0
 12  1  1  0  0  0
  1  2  1  0  0  0
  2  3  2  0  0  0
  3  4  1  0  0  0
  4  5  2  0  0  0
  5 22  1  0  0  0
 22 24  1  0  0  0
 24 25  1  0  0  0
 25 26  2  0  0  0
 26 27  1  0  0  0
 27 28  2  0  0  0
 28 29  1  0  0  0
 29 30  2  0  0  0
  5  6  1  0  0  0
  6  7  2  0  0  0
  7  8  1  0  0  0
  8  9  2  0  0  0
 15 10  1  0  0  0
  9  1  1  0  0  0
  9  4  1  0  0  0
 30 25  1  0  0  0
 19 21  1  0  0  0
 14 17  1  0  0  0
 16 18  1  0  0  0
 22 23  1  0  0  0
M  END
> <minimizedAffinity>
-7.65009

> <CNNscore>
0.4753498435

> <CNNaffinity>
5.5960574150

> <CNN_VS>
2.6600849628

> <CNNaffinity_variance>
0.1480722576

$$$$
[H]OC([H])([H])[C@@]1([H])O[C@@]([H])(n2c([H])nc3c(N([H])C([H])([H])c4c([H])c([H])c([H])c([H])c4[H])nc([H])nc32)[C@@]([H])(O[H])[C@]1([H])O[H]


 30 33  0  0  0  0  0  0  0  0999 V2000
   56.0972   -3.6985  -10.6915 N   0  0  0  0  0  0  0  0  0  0  0  0
   54.7907   -3.4464  -10.4054 C   0  0  0  0  0  0  0  0  0  0  0  0
   54.5170   -3.8811   -9.1766 N   0  0  0  0  0  0  0  0  0  0  0  0
   55.6287   -4.4255   -8.6295 C   0  0  0  0  0  0  0  0  0  0  0  0
   55.9138   -5.0166   -7.4068 C   0  0  0  0  0  0  0  0  0  0  0  0
   57.1469   -5.4553   -7.1956 N   0  0  0  0  0  0  0  0  0  0  0  0
   58.1029   -5.3416   -8.1201 C   0  0  0  0  0  0  0  0  0  0  0  0
   57.8117   -4.7689   -9.2944 N   0  0  0  0  0  0  0  0  0  0  0  0
   56.5958   -4.2904   -9.6126 C   0  0  0  0  0  0  0  0  0  0  0  0
   57.0266   -3.3373  -14.0433 C   0  0  0  0  0  0  0  0  0  0  0  0
   56.0758   -3.5195  -13.0480 O   0  0  0  0  0  0  0  0  0  0  0  0
   56.8292   -3.4072  -11.8889 C   0  0  0  0  0  0  0  0  0  0  0  0
   57.9466   -4.3997  -12.1558 C   0  0  0  0  0  0  0  0  0  0  0  0
   57.3872   -5.6864  -12.1052 O   0  0  0  0  0  0  0  0  0  0  0  0
   58.2814   -4.0349  -13.6087 C   0  0  0  0  0  0  0  0  0  0  0  0
   59.3042   -3.0690  -13.5472 O   0  0  0  0  0  0  0  0  0  0  0  0
   56.6592   -5.6704  -12.8018 H   0  0  0  0  0  0  0  0  0  0  0  0
   58.9002   -2.1557  -13.4106 H   0  0  0  0  0  0  0  0  0  0  0  0
   57.0923   -3.0108  -16.3836 O   0  0  0  0  0  0  0  0  0  0  0  0
   56.5488   -3.8090  -15.3985 C   0  0  0  0  0  0  0  0  0  0  0  0
   57.9668   -3.4098  -16.6639 H   0  0  0  0  0  0  0  0  0  0  0  0
   54.8672   -5.1263   -6.4307 N   0  0  0  0  0  0  0  0  0  0  0  0
   55.0044   -4.7053   -5.4908 H   0  0  0  0  0  0  0  0  0  0  0  0
   53.6773   -5.8275   -6.8478 C   0  0  0  0  0  0  0  0  0  0  0  0
   52.4210   -5.2302   -6.3711 C   0  0  0  0  0  0  0  0  0  0  0  0
   51.7412   -5.6783   -5.2749 C   0  0  0  0  0  0  0  0  0  0  0  0
   50.5479   -5.0868   -4.8389 C   0  0  0  0  0  0  0  0  0  0  0  0
   50.0432   -4.0149   -5.5424 C   0  0  0  0  0  0  0  0  0  0  0  0
   50.7004   -3.5332   -6.6548 C   0  0  0  0  0  0  0  0  0  0  0  0
   51.8655   -4.1404   -7.0483 C   0  0  0  0  0  0  0  0  0  0  0  0
 19 20  1  0  0  0
 20 10  1  0  0  0
 10 11  1  0  0  0
 11 12  1  0  0  0
 12 13  1  0  0  0
 13 14  1  0  0  0
 13 15  1  0  0  0
 15 16  1  0  0  0
 12  1  1  0  0  0
  1  2  1  0  0  0
  2  3  2  0  0  0
  3  4  1  0  0  0
  4  5  2  0  0  0
  5 22  1  0  0  0
 22 24  1  0  0  0
 24 25  1  0  0  0
 25 26  2  0  0  0
 26 27  1  0  0  0
 27 28  2  0  0  0
 28 29  1  0  0  0
 29 30  2  0  0  0
  5  6  1  0  0  0
  6  7  2  0  0  0
  7  8  1  0  0  0
  8  9  2  0  0  0
 15 10  1  0  0  0
  9  1  1  0  0  0
  9  4  1  0  0  0
 30 25  1  0  0  0
 19 21  1  0  0  0
 14 17  1  0  0  0
 16 18  1  0  0  0
 22 23  1  0  0  0
M  END
> <minimizedAffinity>
-7.34167

> <CNNscore>
0.4189014435

> <CNNaffinity>
5.7371535301

> <CNN_VS>
2.4033019543

> <CNNaffinity_variance>
0.1430638731

$$$$
[H]OC([H])([H])[C@@]1([H])O[C@@]([H])(n2c([H])nc3c(N([H])C([H])([H])c4c([H])c([H])c([H])c([H])c4[H])nc([H])nc32)[C@@]([H])(O[H])[C@]1([H])O[H]


 30 33  0  0  0  0  0  0  0  0999 V2000
   58.1774   -3.8418  -13.3989 N   0  0  0  0  0  0  0  0  0  0  0  0
   57.0106   -3.3367  -13.8846 C   0  0  0  0  0  0  0  0  0  0  0  0
   56.0695   -3.4214  -12.9460 N   0  0  0  0  0  0  0  0  0  0  0  0
   56.5910   -3.9801  -11.8292 C   0  0  0  0  0  0  0  0  0  0  0  0
   56.0795   -4.2999  -10.5794 C   0  0  0  0  0  0  0  0  0  0  0  0
   56.8940   -4.8550   -9.6927 N   0  0  0  0  0  0  0  0  0  0  0  0
   58.1739   -5.1081   -9.9738 C   0  0  0  0  0  0  0  0  0  0  0  0
   58.6519   -4.7936  -11.1840 N   0  0  0  0  0  0  0  0  0  0  0  0
   57.9145   -4.2283  -12.1561 C   0  0  0  0  0  0  0  0  0  0  0  0
   61.4907   -3.3206  -14.3885 C   0  0  0  0  0  0  0  0  0  0  0  0
   60.4300   -3.1355  -13.5119 O   0  0  0  0  0  0  0  0  0  0  0  0
   59.4494   -3.9558  -14.0498 C   0  0  0  0  0  0  0  0  0  0  0  0
   59.4196   -3.4870  -15.4935 C   0  0  0  0  0  0  0  0  0  0  0  0
   58.8647   -2.1974  -15.5054 O   0  0  0  0  0  0  0  0  0  0  0  0
   60.9263   -3.4075  -15.7756 C   0  0  0  0  0  0  0  0  0  0  0  0
   61.2947   -4.6589  -16.3059 O   0  0  0  0  0  0  0  0  0  0  0  0
   59.4641   -1.6613  -14.8980 H   0  0  0  0  0  0  0  0  0  0  0  0
   61.4694   -5.3074  -15.5543 H   0  0  0  0  0  0  0  0  0  0  0  0
   62.0139   -1.1533  -13.6031 O   0  0  0  0  0  0  0  0  0  0  0  0
   62.5434   -2.2418  -14.2648 C   0  0  0  0  0  0  0  0  0  0  0  0
   62.1682   -1.2772  -12.6216 H   0  0  0  0  0  0  0  0  0  0  0  0
   54.6997   -4.0171  -10.3037 N   0  0  0  0  0  0  0  0  0  0  0  0
   53.9631   -4.5030  -10.8522 H   0  0  0  0  0  0  0  0  0  0  0  0
   54.4422   -3.0583   -9.2567 C   0  0  0  0  0  0  0  0  0  0  0  0
   53.2799   -3.3760   -8.4139 C   0  0  0  0  0  0  0  0  0  0  0  0
   53.2235   -4.4589   -7.5840 C   0  0  0  0  0  0  0  0  0  0  0  0
   52.1047   -4.7355   -6.7868 C   0  0  0  0  0  0  0  0  0  0  0  0
   51.0231   -3.8838   -6.8433 C   0  0  0  0  0  0  0  0  0  0  0  0
   51.0414   -2.7796   -7.6691 C   0  0  0  0  0  0  0  0  0  0  0  0
   52.1559   -2.5446   -8.4331 C   0  0  0  0  0  0  0  0  0  0  0  0
 19 20  1  0  0  0
 20 10  1  0  0  0
 10 11  1  0  0  0
 11 12  1  0  0  0
 12 13  1  0  0  0
 13 14  1  0  0  0
 13 15  1  0  0  0
 15 16  1  0  0  0
 12  1  1  0  0  0
  1  2  1  0  0  0
  2  3  2  0  0  0
  3  4  1  0  0  0
  4  5  2  0  0  0
  5 22  1  0  0  0
 22 24  1  0  0  0
 24 25  1  0  0  0
 25 26  2  0  0  0
 26 27  1  0  0  0
 27 28  2  0  0  0
 28 29  1  0  0  0
 29 30  2  0  0  0
  5  6  1  0  0  0
  6  7  2  0  0  0
  7  8  1  0  0  0
  8  9  2  0  0  0
 15 10  1  0  0  0
  9  1  1  0  0  0
  9  4  1  0  0  0
 30 25  1  0  0  0
 19 21  1  0  0  0
 14 17  1  0  0  0
 16 18  1  0  0  0
 22 23  1  0  0  0
M  END
> <minimizedAffinity>
-7.67292

> <CNNscore>
0.4066885114

> <CNNaffinity>
5.1276698112

> <CNN_VS>
2.0853643417

> <CNNaffinity_variance>
0.2027205676

$$$$
[H]OC([H])([H])[C@@]1([H])O[C@@]([H])(n2c([H])nc3c(N([H])C([H])([H])c4c([H])c([H])c([H])c([H])c4[H])nc([H])nc32)[C@@]([H])(O[H])[C@]1([H])O[H]


 30 33  0  0  0  0  0  0  0  0999 V2000
   56.2315   -4.0878   -9.7492 N   0  0  0  0  0  0  0  0  0  0  0  0
   56.7324   -4.7703   -8.6835 C   0  0  0  0  0  0  0  0  0  0  0  0
   55.7699   -4.9428   -7.7792 N   0  0  0  0  0  0  0  0  0  0  0  0
   54.6219   -4.3821   -8.2253 C   0  0  0  0  0  0  0  0  0  0  0  0
   53.3391   -4.2656   -7.7090 C   0  0  0  0  0  0  0  0  0  0  0  0
   52.4269   -3.6337   -8.4345 N   0  0  0  0  0  0  0  0  0  0  0  0
   52.7134   -3.1162   -9.6310 C   0  0  0  0  0  0  0  0  0  0  0  0
   53.9556   -3.2371  -10.1148 N   0  0  0  0  0  0  0  0  0  0  0  0
   54.9554   -3.8574   -9.4636 C   0  0  0  0  0  0  0  0  0  0  0  0
   57.0693   -3.5796  -13.1061 C   0  0  0  0  0  0  0  0  0  0  0  0
   56.1678   -3.9176  -12.1056 O   0  0  0  0  0  0  0  0  0  0  0  0
   56.8979   -3.6792  -10.9506 C   0  0  0  0  0  0  0  0  0  0  0  0
   58.1645   -4.4704  -11.2233 C   0  0  0  0  0  0  0  0  0  0  0  0
   57.8292   -5.8327  -11.1694 O   0  0  0  0  0  0  0  0  0  0  0  0
   58.4256   -4.0563  -12.6781 C   0  0  0  0  0  0  0  0  0  0  0  0
   59.2722   -2.9324  -12.6223 O   0  0  0  0  0  0  0  0  0  0  0  0
   57.1052   -5.9399  -11.8620 H   0  0  0  0  0  0  0  0  0  0  0  0
   58.7215   -2.0997  -12.4838 H   0  0  0  0  0  0  0  0  0  0  0  0
   56.2787   -5.4426  -14.3276 O   0  0  0  0  0  0  0  0  0  0  0  0
   56.6702   -4.1263  -14.4586 C   0  0  0  0  0  0  0  0  0  0  0  0
   55.2951   -5.4604  -14.1412 H   0  0  0  0  0  0  0  0  0  0  0  0
   53.0582   -4.8312   -6.4201 N   0  0  0  0  0  0  0  0  0  0  0  0
   53.7542   -4.7230   -5.6563 H   0  0  0  0  0  0  0  0  0  0  0  0
   51.7966   -5.5184   -6.2865 C   0  0  0  0  0  0  0  0  0  0  0  0
   50.7426   -4.7322   -5.6284 C   0  0  0  0  0  0  0  0  0  0  0  0
   50.2355   -5.0326   -4.3966 C   0  0  0  0  0  0  0  0  0  0  0  0
   49.2342   -4.2627   -3.7896 C   0  0  0  0  0  0  0  0  0  0  0  0
   48.7443   -3.1635   -4.4606 C   0  0  0  0  0  0  0  0  0  0  0  0
   49.2305   -2.8274   -5.7065 C   0  0  0  0  0  0  0  0  0  0  0  0
   50.2106   -3.6070   -6.2655 C   0  0  0  0  0  0  0  0  0  0  0  0
 19 20  1  0  0  0
 20 10  1  0  0  0
 10 11  1  0  0  0
 11 12  1  0  0  0
 12 13  1  0  0  0
 13 14  1  0  0  0
 13 15  1  0  0  0
 15 16  1  0  0  0
 12  1  1  0  0  0
  1  2  1  0  0  0
  2  3  2  0  0  0
  3  4  1  0  0  0
  4  5  2  0  0  0
  5 22  1  0  0  0
 22 24  1  0  0  0
 24 25  1  0  0  0
 25 26  2  0  0  0
 26 27  1  0  0  0
 27 28  2  0  0  0
 28 29  1  0  0  0
 29 30  2  0  0  0
  5  6  1  0  0  0
  6  7  2  0  0  0
  7  8  1  0  0  0
  8  9  2  0  0  0
 15 10  1  0  0  0
  9  1  1  0  0  0
  9  4  1  0  0  0
 30 25  1  0  0  0
 19 21  1  0  0  0
 14 17  1  0  0  0
 16 18  1  0  0  0
 22 23  1  0  0  0
M  END
> <minimizedAffinity>
-9.29129

> <CNNscore>
0.3650314808

> <CNNaffinity>
5.7102241516

> <CNN_VS>
2.0844116211

> <CNNaffinity_variance>
0.2408330142

$$$$
[H]OC([H])([H])[C@@]1([H])O[C@@]([H])(n2c([H])nc3c(N([H])C([H])([H])c4c([H])c([H])c([H])c([H])c4[H])nc([H])nc32)[C@@]([H])(O[H])[C@]1([H])O[H]


 30 33  0  0  0  0  0  0  0  0999 V2000
   52.9370   -6.0686   -4.7312 N   0  0  0  0  0  0  0  0  0  0  0  0
   54.1369   -6.0083   -5.3707 C   0  0  0  0  0  0  0  0  0  0  0  0
   54.0394   -5.1852   -6.4133 N   0  0  0  0  0  0  0  0  0  0  0  0
   52.7825   -4.6886   -6.4837 C   0  0  0  0  0  0  0  0  0  0  0  0
   52.1371   -3.8108   -7.3431 C   0  0  0  0  0  0  0  0  0  0  0  0
   50.8610   -3.5341   -7.1136 N   0  0  0  0  0  0  0  0  0  0  0  0
   50.1964   -4.0741   -6.0898 C   0  0  0  0  0  0  0  0  0  0  0  0
   50.8334   -4.9190   -5.2699 N   0  0  0  0  0  0  0  0  0  0  0  0
   52.1245   -5.2680   -5.4107 C   0  0  0  0  0  0  0  0  0  0  0  0
   52.3520   -7.0480   -1.4255 C   0  0  0  0  0  0  0  0  0  0  0  0
   52.5869   -6.0811   -2.3939 O   0  0  0  0  0  0  0  0  0  0  0  0
   52.5742   -6.8215   -3.5667 C   0  0  0  0  0  0  0  0  0  0  0  0
   53.5668   -7.9231   -3.2411 C   0  0  0  0  0  0  0  0  0  0  0  0
   54.8423   -7.3387   -3.1915 O   0  0  0  0  0  0  0  0  0  0  0  0
   53.1043   -8.2835   -1.8226 C   0  0  0  0  0  0  0  0  0  0  0  0
   52.1660   -9.3238   -1.9661 O   0  0  0  0  0  0  0  0  0  0  0  0
   54.7613   -6.6202   -2.4895 H   0  0  0  0  0  0  0  0  0  0  0  0
   51.2572   -8.9356   -2.1641 H   0  0  0  0  0  0  0  0  0  0  0  0
   52.8439   -5.2054   -0.0288 O   0  0  0  0  0  0  0  0  0  0  0  0
   52.7144   -6.5789   -0.0342 C   0  0  0  0  0  0  0  0  0  0  0  0
   51.9490   -4.8067    0.1778 H   0  0  0  0  0  0  0  0  0  0  0  0
   52.8753   -3.2446   -8.4361 N   0  0  0  0  0  0  0  0  0  0  0  0
   53.1425   -2.2411   -8.4016 H   0  0  0  0  0  0  0  0  0  0  0  0
   53.1976   -4.1407   -9.5199 C   0  0  0  0  0  0  0  0  0  0  0  0
   54.6326   -4.2306   -9.8282 C   0  0  0  0  0  0  0  0  0  0  0  0
   55.5928   -4.4677   -8.8868 C   0  0  0  0  0  0  0  0  0  0  0  0
   56.9539   -4.5540   -9.2089 C   0  0  0  0  0  0  0  0  0  0  0  0
   57.3360   -4.3933  -10.5229 C   0  0  0  0  0  0  0  0  0  0  0  0
   56.3963   -4.1521  -11.5028 C   0  0  0  0  0  0  0  0  0  0  0  0
   55.0744   -4.0752  -11.1457 C   0  0  0  0  0  0  0  0  0  0  0  0
 19 20  1  0  0  0
 20 10  1  0  0  0
 10 11  1  0  0  0
 11 12  1  0  0  0
 12 13  1  0  0  0
 13 14  1  0  0  0
 13 15  1  0  0  0
 15 16  1  0  0  0
 12  1  1  0  0  0
  1  2  1  0  0  0
  2  3  2  0  0  0
  3  4  1  0  0  0
  4  5  2  0  0  0
  5 22  1  0  0  0
 22 24  1  0  0  0
 24 25  1  0  0  0
 25 26  2  0  0  0
 26 27  1  0  0  0
 27 28  2  0  0  0
 28 29  1  0  0  0
 29 30  2  0  0  0
  5  6  1  0  0  0
  6  7  2  0  0  0
  7  8  1  0  0  0
  8  9  2  0  0  0
 15 10  1  0  0  0
  9  1  1  0  0  0
  9  4  1  0  0  0
 30 25  1  0  0  0
 19 21  1  0  0  0
 14 17  1  0  0  0
 16 18  1  0  0  0
 22 23  1  0  0  0
M  END
> <minimizedAffinity>
-7.25823

> <CNNscore>
0.3222163916

> <CNNaffinity>
5.6708555222

> <CNN_VS>
1.8272426128

> <CNNaffinity_variance>
0.3398910761

$$$$
[H]OC([H])([H])[C@@]1([H])O[C@@]([H])(n2c([H])nc3c(N([H])C([H])([H])c4c([H])c([H])c([H])c([H])c4[H])nc([H])nc32)[C@@]([H])(O[H])[C@]1([H])O[H]


 30 33  0  0  0  0  0  0  0  0999 V2000
   56.3835   -4.1770   -9.6844 N   0  0  0  0  0  0  0  0  0  0  0  0
   56.9594   -4.8399   -8.6445 C   0  0  0  0  0  0  0  0  0  0  0  0
   56.0479   -5.0482   -7.6960 N   0  0  0  0  0  0  0  0  0  0  0  0
   54.8599   -4.5310   -8.0866 C   0  0  0  0  0  0  0  0  0  0  0  0
   53.5994   -4.4626   -7.5101 C   0  0  0  0  0  0  0  0  0  0  0  0
   52.6309   -3.8655   -8.1908 N   0  0  0  0  0  0  0  0  0  0  0  0
   52.8410   -3.3379   -9.3987 C   0  0  0  0  0  0  0  0  0  0  0  0
   54.0626   -3.4123   -9.9408 N   0  0  0  0  0  0  0  0  0  0  0  0
   55.1146   -3.9945   -9.3385 C   0  0  0  0  0  0  0  0  0  0  0  0
   57.0213   -3.6064  -13.0750 C   0  0  0  0  0  0  0  0  0  0  0  0
   56.1814   -3.9667  -12.0297 O   0  0  0  0  0  0  0  0  0  0  0  0
   56.9766   -3.7440  -10.9153 C   0  0  0  0  0  0  0  0  0  0  0  0
   58.2289   -4.5231  -11.2752 C   0  0  0  0  0  0  0  0  0  0  0  0
   57.9037   -5.8880  -11.2256 O   0  0  0  0  0  0  0  0  0  0  0  0
   58.4026   -4.0827  -12.7353 C   0  0  0  0  0  0  0  0  0  0  0  0
   59.2457   -2.9551  -12.7094 O   0  0  0  0  0  0  0  0  0  0  0  0
   57.1409   -5.9875  -11.8766 H   0  0  0  0  0  0  0  0  0  0  0  0
   58.7001   -2.1281  -12.5244 H   0  0  0  0  0  0  0  0  0  0  0  0
   56.3515   -5.4952  -14.3286 O   0  0  0  0  0  0  0  0  0  0  0  0
   56.5464   -4.1321  -14.4112 C   0  0  0  0  0  0  0  0  0  0  0  0
   55.4069   -5.6603  -14.0404 H   0  0  0  0  0  0  0  0  0  0  0  0
   53.4011   -5.0379   -6.2102 N   0  0  0  0  0  0  0  0  0  0  0  0
   54.0956   -4.8490   -5.4608 H   0  0  0  0  0  0  0  0  0  0  0  0
   52.2199   -5.8499   -6.0457 C   0  0  0  0  0  0  0  0  0  0  0  0
   51.1482   -5.2132   -5.2657 C   0  0  0  0  0  0  0  0  0  0  0  0
   50.3721   -4.1952   -5.7411 C   0  0  0  0  0  0  0  0  0  0  0  0
   49.3531   -3.6096   -4.9779 C   0  0  0  0  0  0  0  0  0  0  0  0
   49.1272   -4.0782   -3.7021 C   0  0  0  0  0  0  0  0  0  0  0  0
   49.8897   -5.1047   -3.1859 C   0  0  0  0  0  0  0  0  0  0  0  0
   50.8771   -5.6506   -3.9656 C   0  0  0  0  0  0  0  0  0  0  0  0
 19 20  1  0  0  0
 20 10  1  0  0  0
 10 11  1  0  0  0
 11 12  1  0  0  0
 12 13  1  0  0  0
 13 14  1  0  0  0
 13 15  1  0  0  0
 15 16  1  0  0  0
 12  1  1  0  0  0
  1  2  1  0  0  0
  2  3  2  0  0  0
  3  4  1  0  0  0
  4  5  2  0  0  0
  5 22  1  0  0  0
 22 24  1  0  0  0
 24 25  1  0  0  0
 25 26  2  0  0  0
 26 27  1  0  0  0
 27 28  2  0  0  0
 28 29  1  0  0  0
 29 30  2  0  0  0
  5  6  1  0  0  0
  6  7  2  0  0  0
  7  8  1  0  0  0
  8  9  2  0  0  0
 15 10  1  0  0  0
  9  1  1  0  0  0
  9  4  1  0  0  0
 30 25  1  0  0  0
 19 21  1  0  0  0
 14 17  1  0  0  0
 16 18  1  0  0  0
 22 23  1  0  0  0
M  END
> <minimizedAffinity>
-8.82417

> <CNNscore>
0.3062486649

> <CNNaffinity>
5.6147942543

> <CNN_VS>
1.7195231915

> <CNNaffinity_variance>
0.3554938138

$$$$
[H]OC([H])([H])[C@@]1([H])O[C@@]([H])(n2c([H])nc3c(N([H])C([H])([H])c4c([H])c([H])c([H])c([H])c4[H])nc([H])nc32)[C@@]([H])(O[H])[C@]1([H])O[H]


 30 33  0  0  0  0  0  0  0  0999 V2000
   56.3860   -4.1460   -9.5536 N   0  0  0  0  0  0  0  0  0  0  0  0
   57.0014   -4.7334   -8.4912 C   0  0  0  0  0  0  0  0  0  0  0  0
   56.1064   -4.9522   -7.5295 N   0  0  0  0  0  0  0  0  0  0  0  0
   54.8903   -4.5172   -7.9335 C   0  0  0  0  0  0  0  0  0  0  0  0
   53.6302   -4.4942   -7.3525 C   0  0  0  0  0  0  0  0  0  0  0  0
   52.6278   -3.9793   -8.0510 N   0  0  0  0  0  0  0  0  0  0  0  0
   52.8040   -3.4908   -9.2805 C   0  0  0  0  0  0  0  0  0  0  0  0
   54.0257   -3.5204   -9.8267 N   0  0  0  0  0  0  0  0  0  0  0  0
   55.1104   -4.0192   -9.2077 C   0  0  0  0  0  0  0  0  0  0  0  0
   56.9450   -3.6302  -12.9669 C   0  0  0  0  0  0  0  0  0  0  0  0
   56.1301   -3.9754  -11.8969 O   0  0  0  0  0  0  0  0  0  0  0  0
   56.9497   -3.7319  -10.8047 C   0  0  0  0  0  0  0  0  0  0  0  0
   58.1959   -4.5135  -11.1800 C   0  0  0  0  0  0  0  0  0  0  0  0
   57.8763   -5.8783  -11.1003 O   0  0  0  0  0  0  0  0  0  0  0  0
   58.3351   -4.0969  -12.6507 C   0  0  0  0  0  0  0  0  0  0  0  0
   59.1750   -2.9667  -12.6627 O   0  0  0  0  0  0  0  0  0  0  0  0
   57.0993   -5.9907  -11.7321 H   0  0  0  0  0  0  0  0  0  0  0  0
   58.6311   -2.1382  -12.4792 H   0  0  0  0  0  0  0  0  0  0  0  0
   56.3960   -5.5569  -14.2217 O   0  0  0  0  0  0  0  0  0  0  0  0
   56.4416   -4.1795  -14.2830 C   0  0  0  0  0  0  0  0  0  0  0  0
   55.4946   -5.8261  -13.8788 H   0  0  0  0  0  0  0  0  0  0  0  0
   53.4689   -5.0259   -6.0292 N   0  0  0  0  0  0  0  0  0  0  0  0
   53.2737   -4.3763   -5.2421 H   0  0  0  0  0  0  0  0  0  0  0  0
   53.5903   -6.4576   -5.8980 C   0  0  0  0  0  0  0  0  0  0  0  0
   54.3577   -6.8976   -4.7234 C   0  0  0  0  0  0  0  0  0  0  0  0
   55.6593   -7.3061   -4.7827 C   0  0  0  0  0  0  0  0  0  0  0  0
   56.3693   -7.7157   -3.6461 C   0  0  0  0  0  0  0  0  0  0  0  0
   55.7303   -7.7056   -2.4254 C   0  0  0  0  0  0  0  0  0  0  0  0
   54.4163   -7.2999   -2.3243 C   0  0  0  0  0  0  0  0  0  0  0  0
   53.7570   -6.9066   -3.4608 C   0  0  0  0  0  0  0  0  0  0  0  0
 19 20  1  0  0  0
 20 10  1  0  0  0
 10 11  1  0  0  0
 11 12  1  0  0  0
 12 13  1  0  0  0
 13 14  1  0  0  0
 13 15  1  0  0  0
 15 16  1  0  0  0
 12  1  1  0  0  0
  1  2  1  0  0  0
  2  3  2  0  0  0
  3  4  1  0  0  0
  4  5  2  0  0  0
  5 22  1  0  0  0
 22 24  1  0  0  0
 24 25  1  0  0  0
 25 26  2  0  0  0
 26 27  1  0  0  0
 27 28  2  0  0  0
 28 29  1  0  0  0
 29 30  2  0  0  0
  5  6  1  0  0  0
  6  7  2  0  0  0
  7  8  1  0  0  0
  8  9  2  0  0  0
 15 10  1  0  0  0
  9  1  1  0  0  0
  9  4  1  0  0  0
 30 25  1  0  0  0
 19 21  1  0  0  0
 14 17  1  0  0  0
 16 18  1  0  0  0
 22 23  1  0  0  0
M  END
> <minimizedAffinity>
-7.27659

> <CNNscore>
0.2706176937

> <CNNaffinity>
5.5169258118

> <CNN_VS>
1.4929777384

> <CNNaffinity_variance>
0.1827335060

$$$$
[H]OC([H])([H])[C@@]1([H])O[C@@]([H])(n2c([H])nc3c(N([H])C([H])([H])c4c([H])c([H])c([H])c([H])c4[H])nc([H])nc32)[C@@]([H])(O[H])[C@]1([H])O[H]


 30 33  0  0  0  0  0  0  0  0999 V2000
   56.8778   -4.4237  -11.8247 N   0  0  0  0  0  0  0  0  0  0  0  0
   55.7252   -3.9307  -11.2945 C   0  0  0  0  0  0  0  0  0  0  0  0
   55.7669   -4.0436   -9.9681 N   0  0  0  0  0  0  0  0  0  0  0  0
   56.9390   -4.6093   -9.5972 C   0  0  0  0  0  0  0  0  0  0  0  0
   57.5018   -4.9547   -8.3766 C   0  0  0  0  0  0  0  0  0  0  0  0
   58.7062   -5.5089   -8.3767 N   0  0  0  0  0  0  0  0  0  0  0  0
   59.3763   -5.7374   -9.5081 C   0  0  0  0  0  0  0  0  0  0  0  0
   58.8195   -5.3985  -10.6772 N   0  0  0  0  0  0  0  0  0  0  0  0
   57.6054   -4.8316  -10.7916 C   0  0  0  0  0  0  0  0  0  0  0  0
   58.3696   -3.7955  -14.9244 C   0  0  0  0  0  0  0  0  0  0  0  0
   58.2790   -3.6204  -13.5500 O   0  0  0  0  0  0  0  0  0  0  0  0
   57.2724   -4.5080  -13.2001 C   0  0  0  0  0  0  0  0  0  0  0  0
   56.1661   -4.1061  -14.1589 C   0  0  0  0  0  0  0  0  0  0  0  0
   55.6981   -2.8451  -13.7562 O   0  0  0  0  0  0  0  0  0  0  0  0
   56.9774   -3.9701  -15.4548 C   0  0  0  0  0  0  0  0  0  0  0  0
   56.9197   -5.2257  -16.0897 O   0  0  0  0  0  0  0  0  0  0  0  0
   56.5150   -2.2555  -13.7804 H   0  0  0  0  0  0  0  0  0  0  0  0
   57.6295   -5.8313  -15.7085 H   0  0  0  0  0  0  0  0  0  0  0  0
   60.2094   -2.3126  -14.8595 O   0  0  0  0  0  0  0  0  0  0  0  0
   59.1057   -2.6650  -15.6083 C   0  0  0  0  0  0  0  0  0  0  0  0
   60.9850   -2.8683  -15.1630 H   0  0  0  0  0  0  0  0  0  0  0  0
   56.7595   -4.6980   -7.1753 N   0  0  0  0  0  0  0  0  0  0  0  0
   56.7827   -3.7466   -6.7585 H   0  0  0  0  0  0  0  0  0  0  0  0
   56.0191   -5.8114   -6.6332 C   0  0  0  0  0  0  0  0  0  0  0  0
   54.5895   -5.5435   -6.4174 C   0  0  0  0  0  0  0  0  0  0  0  0
   53.8069   -4.8642   -7.3066 C   0  0  0  0  0  0  0  0  0  0  0  0
   52.4446   -4.6273   -7.0785 C   0  0  0  0  0  0  0  0  0  0  0  0
   51.8755   -5.0967   -5.9148 C   0  0  0  0  0  0  0  0  0  0  0  0
   52.6326   -5.7869   -4.9918 C   0  0  0  0  0  0  0  0  0  0  0  0
   53.9623   -5.9978   -5.2532 C   0  0  0  0  0  0  0  0  0  0  0  0
 19 20  1  0  0  0
 20 10  1  0  0  0
 10 11  1  0  0  0
 11 12  1  0  0  0
 12 13  1  0  0  0
 13 14  1  0  0  0
 13 15  1  0  0  0
 15 16  1  0  0  0
 12  1  1  0  0  0
  1  2  1  0  0  0
  2  3  2  0  0  0
  3  4  1  0  0  0
  4  5  2  0  0  0
  5 22  1  0  0  0
 22 24  1  0  0  0
 24 25  1  0  0  0
 25 26  2  0  0  0
 26 27  1  0  0  0
 27 28  2  0  0  0
 28 29  1  0  0  0
 29 30  2  0  0  0
  5  6  1  0  0  0
  6  7  2  0  0  0
  7  8  1  0  0  0
  8  9  2  0  0  0
 15 10  1  0  0  0
  9  1  1  0  0  0
  9  4  1  0  0  0
 30 25  1  0  0  0
 19 21  1  0  0  0
 14 17  1  0  0  0
 16 18  1  0  0  0
 22 23  1  0  0  0
M  END
> <minimizedAffinity>
-7.84553

> <CNNscore>
0.2456705868

> <CNNaffinity>
5.2323465347

> <CNN_VS>
1.2854336500

> <CNNaffinity_variance>
0.1076359525

$$$$
[H]OC([H])([H])[C@@]1([H])O[C@@]([H])(O[H])[C@@]([H])(O[H])[C@@]([H])(O[H])[C@]1([H])O[H]


 17 17  0  0  0  0  0  0  0  0999 V2000
   51.2022   -3.8312   -7.5068 C   0  0  0  0  0  0  0  0  0  0  0  0
   52.2991   -4.6413   -7.6223 O   0  0  0  0  0  0  0  0  0  0  0  0
   52.0918   -5.9532   -7.2420 C   0  0  0  0  0  0  0  0  0  0  0  0
   53.2544   -6.6756   -7.4634 O   0  0  0  0  0  0  0  0  0  0  0  0
   51.7194   -5.9330   -5.7606 C   0  0  0  0  0  0  0  0  0  0  0  0
   52.5903   -5.0500   -5.1283 O   0  0  0  0  0  0  0  0  0  0  0  0
   50.3446   -5.2545   -5.7405 C   0  0  0  0  0  0  0  0  0  0  0  0
   49.7068   -5.3832   -4.5434 O   0  0  0  0  0  0  0  0  0  0  0  0
   50.6365   -3.7929   -6.1046 C   0  0  0  0  0  0  0  0  0  0  0  0
   49.4403   -3.1262   -6.0694 O   0  0  0  0  0  0  0  0  0  0  0  0
   53.2991   -6.8806   -8.4297 H   0  0  0  0  0  0  0  0  0  0  0  0
   52.7812   -5.2940   -4.1911 H   0  0  0  0  0  0  0  0  0  0  0  0
   48.8570   -5.9040   -4.6965 H   0  0  0  0  0  0  0  0  0  0  0  0
   48.6556   -3.7183   -6.1033 H   0  0  0  0  0  0  0  0  0  0  0  0
   51.8685   -2.4280   -9.3509 O   0  0  0  0  0  0  0  0  0  0  0  0
   51.5800   -2.4512   -7.9970 C   0  0  0  0  0  0  0  0  0  0  0  0
   52.5220   -3.1389   -9.6136 H   0  0  0  0  0  0  0  0  0  0  0  0
 15 16  1  0  0  0
 16  1  1  0  0  0
  1  2  1  0  0  0
  2  3  1  0  0  0
  3  4  1  0  0  0
  3  5  1  0  0  0
  5  6  1  0  0  0
  5  7  1  0  0  0
  7  8  1  0  0  0
  7  9  1  0  0  0
  9 10  1  0  0  0
  9  1  1  0  0  0
 15 17  1  0  0  0
  4 11  1  0  0  0
  6 12  1  0  0  0
  8 13  1  0  0  0
 10 14  1  0  0  0
M  END
> <minimizedAffinity>
-4.85822

> <CNNscore>
0.5074649453

> <CNNaffinity>
3.1720726490

> <CNN_VS>
1.6097157001

> <CNNaffinity_variance>
0.1787624061

$$$$
[H]OC([H])([H])[C@@]1([H])O[C@@]([H])(O[H])[C@@]([H])(O[H])[C@@]([H])(O[H])[C@]1([H])O[H]


 17 17  0  0  0  0  0  0  0  0999 V2000
   51.5249   -4.7777   -6.7777 C   0  0  0  0  0  0  0  0  0  0  0  0
   51.6750   -4.0082   -7.8995 O   0  0  0  0  0  0  0  0  0  0  0  0
   51.4702   -2.6558   -7.7046 C   0  0  0  0  0  0  0  0  0  0  0  0
   51.7106   -1.9876   -8.8955 O   0  0  0  0  0  0  0  0  0  0  0  0
   50.0213   -2.4866   -7.2510 C   0  0  0  0  0  0  0  0  0  0  0  0
   49.2368   -3.3007   -8.0633 O   0  0  0  0  0  0  0  0  0  0  0  0
   49.9978   -3.1322   -5.8605 C   0  0  0  0  0  0  0  0  0  0  0  0
   48.8641   -2.8453   -5.1613 O   0  0  0  0  0  0  0  0  0  0  0  0
   50.1634   -4.6326   -6.1350 C   0  0  0  0  0  0  0  0  0  0  0  0
   50.1162   -5.2679   -4.9223 O   0  0  0  0  0  0  0  0  0  0  0  0
   52.6905   -1.9041   -8.9984 H   0  0  0  0  0  0  0  0  0  0  0  0
   48.3270   -2.9466   -8.2085 H   0  0  0  0  0  0  0  0  0  0  0  0
   49.1283   -2.3319   -4.3346 H   0  0  0  0  0  0  0  0  0  0  0  0
   50.2672   -4.6703   -4.1558 H   0  0  0  0  0  0  0  0  0  0  0  0
   50.6713   -6.9541   -7.3680 O   0  0  0  0  0  0  0  0  0  0  0  0
   51.8205   -6.2142   -7.1470 C   0  0  0  0  0  0  0  0  0  0  0  0
   50.0086   -6.8603   -6.6240 H   0  0  0  0  0  0  0  0  0  0  0  0
 15 16  1  0  0  0
 16  1  1  0  0  0
  1  2  1  0  0  0
  2  3  1  0  0  0
  3  4  1  0  0  0
  3  5  1  0  0  0
  5  6  1  0  0  0
  5  7  1  0  0  0
  7  8  1  0  0  0
  7  9  1  0  0  0
  9 10  1  0  0  0
  9  1  1  0  0  0
 15 17  1  0  0  0
  4 11  1  0  0  0
  6 12  1  0  0  0
  8 13  1  0  0  0
 10 14  1  0  0  0
M  END
> <minimizedAffinity>
-5.43995

> <CNNscore>
0.5033333302

> <CNNaffinity>
3.2604775429

> <CNN_VS>
1.6411069632

> <CNNaffinity_variance>
0.1428966522

$$$$
[H]OC([H])([H])[C@@]1([H])O[C@@]([H])(O[H])[C@@]([H])(O[H])[C@@]([H])(O[H])[C@]1([H])O[H]


 17 17  0  0  0  0  0  0  0  0999 V2000
   58.4013   -4.8887  -10.3420 C   0  0  0  0  0  0  0  0  0  0  0  0
   58.7652   -4.7791  -11.6567 O   0  0  0  0  0  0  0  0  0  0  0  0
   58.2661   -3.6652  -12.3039 C   0  0  0  0  0  0  0  0  0  0  0  0
   58.7548   -3.6413  -13.6013 O   0  0  0  0  0  0  0  0  0  0  0  0
   56.7433   -3.7835  -12.2820 C   0  0  0  0  0  0  0  0  0  0  0  0
   56.4269   -5.0998  -12.6062 O   0  0  0  0  0  0  0  0  0  0  0  0
   56.3871   -3.6182  -10.7998 C   0  0  0  0  0  0  0  0  0  0  0  0
   55.0556   -3.4158  -10.5934 O   0  0  0  0  0  0  0  0  0  0  0  0
   56.9025   -4.9034  -10.1392 C   0  0  0  0  0  0  0  0  0  0  0  0
   56.5801   -4.8261   -8.8100 O   0  0  0  0  0  0  0  0  0  0  0  0
   59.6826   -3.3011  -13.5647 H   0  0  0  0  0  0  0  0  0  0  0  0
   55.5653   -5.1890  -13.0794 H   0  0  0  0  0  0  0  0  0  0  0  0
   54.9390   -2.5057  -10.1752 H   0  0  0  0  0  0  0  0  0  0  0  0
   56.3628   -3.9158   -8.5074 H   0  0  0  0  0  0  0  0  0  0  0  0
   60.3874   -6.2402  -10.1363 O   0  0  0  0  0  0  0  0  0  0  0  0
   59.0566   -6.1267   -9.7718 C   0  0  0  0  0  0  0  0  0  0  0  0
   60.5231   -6.1335  -11.1221 H   0  0  0  0  0  0  0  0  0  0  0  0
 15 16  1  0  0  0
 16  1  1  0  0  0
  1  2  1  0  0  0
  2  3  1  0  0  0
  3  4  1  0  0  0
  3  5  1  0  0  0
  5  6  1  0  0  0
  5  7  1  0  0  0
  7  8  1  0  0  0
  7  9  1  0  0  0
  9 10  1  0  0  0
  9  1  1  0  0  0
 15 17  1  0  0  0
  4 11  1  0  0  0
  6 12  1  0  0  0
  8 13  1  0  0  0
 10 14  1  0  0  0
M  END
> <minimizedAffinity>
-4.37874

> <CNNscore>
0.4721107483

> <CNNaffinity>
2.7564797401

> <CNN_VS>
1.3013637066

> <CNNaffinity_variance>
0.1155706495

$$$$
[H]OC([H])([H])[C@@]1([H])O[C@@]([H])(O[H])[C@@]([H])(O[H])[C@@]([H])(O[H])[C@]1([H])O[H]


 17 17  0  0  0  0  0  0  0  0999 V2000
   51.4702   -3.6835   -7.1153 C   0  0  0  0  0  0  0  0  0  0  0  0
   52.0868   -4.8973   -6.9763 O   0  0  0  0  0  0  0  0  0  0  0  0
   53.4675   -4.8490   -6.9862 C   0  0  0  0  0  0  0  0  0  0  0  0
   53.9645   -6.1266   -6.7776 O   0  0  0  0  0  0  0  0  0  0  0  0
   53.8834   -4.3029   -8.3509 C   0  0  0  0  0  0  0  0  0  0  0  0
   53.1034   -4.9462   -9.3079 O   0  0  0  0  0  0  0  0  0  0  0  0
   53.4000   -2.8481   -8.3231 C   0  0  0  0  0  0  0  0  0  0  0  0
   53.9144   -2.0986   -9.3380 O   0  0  0  0  0  0  0  0  0  0  0  0
   51.8705   -2.9545   -8.3787 C   0  0  0  0  0  0  0  0  0  0  0  0
   51.3815   -1.6749   -8.3902 O   0  0  0  0  0  0  0  0  0  0  0  0
   53.9000   -6.3176   -5.8096 H   0  0  0  0  0  0  0  0  0  0  0  0
   53.5625   -5.0584  -10.1744 H   0  0  0  0  0  0  0  0  0  0  0  0
   54.4719   -1.3631   -8.9318 H   0  0  0  0  0  0  0  0  0  0  0  0
   52.0311   -0.9998   -8.0906 H   0  0  0  0  0  0  0  0  0  0  0  0
   49.2947   -2.7809   -6.5991 O   0  0  0  0  0  0  0  0  0  0  0  0
   49.9754   -3.9017   -7.0435 C   0  0  0  0  0  0  0  0  0  0  0  0
   49.6854   -2.4066   -5.7573 H   0  0  0  0  0  0  0  0  0  0  0  0
 15 16  1  0  0  0
 16  1  1  0  0  0
  1  2  1  0  0  0
  2  3  1  0  0  0
  3  4  1  0  0  0
  3  5  1  0  0  0
  5  6  1  0  0  0
  5  7  1  0  0  0
  7  8  1  0  0  0
  7  9  1  0  0  0
  9 10  1  0  0  0
  9  1  1  0  0  0
 15 17  1  0  0  0
  4 11  1  0  0  0
  6 12  1  0  0  0
  8 13  1  0  0  0
 10 14  1  0  0  0
M  END
> <minimizedAffinity>
-4.82031

> <CNNscore>
0.4310368001

> <CNNaffinity>
2.9552617073

> <CNN_VS>
1.2738265991

> <CNNaffinity_variance>
0.0616214201

$$$$
[H]OC([H])([H])[C@@]1([H])O[C@@]([H])(O[H])[C@@]([H])(O[H])[C@@]([H])(O[H])[C@]1([H])O[H]


 17 17  0  0  0  0  0  0  0  0999 V2000
   54.8440   -3.5874   -8.5555 C   0  0  0  0  0  0  0  0  0  0  0  0
   54.9162   -3.9545   -7.2391 O   0  0  0  0  0  0  0  0  0  0  0  0
   56.1960   -3.9987   -6.7205 C   0  0  0  0  0  0  0  0  0  0  0  0
   56.1255   -4.3218   -5.3739 O   0  0  0  0  0  0  0  0  0  0  0  0
   56.9596   -5.0597   -7.5111 C   0  0  0  0  0  0  0  0  0  0  0  0
   56.1174   -6.1601   -7.6450 O   0  0  0  0  0  0  0  0  0  0  0  0
   57.0818   -4.4507   -8.9129 C   0  0  0  0  0  0  0  0  0  0  0  0
   57.9706   -5.1144   -9.7041 O   0  0  0  0  0  0  0  0  0  0  0  0
   55.6518   -4.4834   -9.4678 C   0  0  0  0  0  0  0  0  0  0  0  0
   55.7056   -3.9784  -10.7401 O   0  0  0  0  0  0  0  0  0  0  0  0
   55.8707   -3.5021   -4.8832 H   0  0  0  0  0  0  0  0  0  0  0  0
   56.6014   -7.0195   -7.6842 H   0  0  0  0  0  0  0  0  0  0  0  0
   58.7148   -4.4767   -9.9413 H   0  0  0  0  0  0  0  0  0  0  0  0
   56.5237   -3.4659  -10.9286 H   0  0  0  0  0  0  0  0  0  0  0  0
   53.1591   -2.7437  -10.0599 O   0  0  0  0  0  0  0  0  0  0  0  0
   53.3861   -3.5476   -8.9558 C   0  0  0  0  0  0  0  0  0  0  0  0
   53.5724   -1.8375   -9.9630 H   0  0  0  0  0  0  0  0  0  0  0  0
 15 16  1  0  0  0
 16  1  1  0  0  0
  1  2  1  0  0  0
  2  3  1  0  0  0
  3  4  1  0  0  0
  3  5  1  0  0  0
  5  6  1  0  0  0
  5  7  1  0  0  0
  7  8  1  0  0  0
  7  9  1  0  0  0
  9 10  1  0  0  0
  9  1  1  0  0  0
 15 17  1  0  0  0
  4 11  1  0  0  0
  6 12  1  0  0  0
  8 13  1  0  0  0
 10 14  1  0  0  0
M  END
> <minimizedAffinity>
-4.40386

> <CNNscore>
0.3851763904

> <CNNaffinity>
2.6938271523

> <CNN_VS>
1.0375986099

> <CNNaffinity_variance>
0.1359145641

$$$$
[H]OC([H])([H])[C@@]1([H])O[C@@]([H])(O[H])[C@@]([H])(O[H])[C@@]([H])(O[H])[C@]1([H])O[H]


 17 17  0  0  0  0  0  0  0  0999 V2000
   51.0779   -3.5754   -6.6125 C   0  0  0  0  0  0  0  0  0  0  0  0
   50.6487   -4.6084   -5.8240 O   0  0  0  0  0  0  0  0  0  0  0  0
   51.6588   -5.3492   -5.2411 C   0  0  0  0  0  0  0  0  0  0  0  0
   51.0938   -6.3183   -4.4260 O   0  0  0  0  0  0  0  0  0  0  0  0
   52.4641   -5.9750   -6.3784 C   0  0  0  0  0  0  0  0  0  0  0  0
   51.5520   -6.4670   -7.3078 O   0  0  0  0  0  0  0  0  0  0  0  0
   53.1408   -4.7734   -7.0487 C   0  0  0  0  0  0  0  0  0  0  0  0
   54.1256   -5.1357   -7.9178 O   0  0  0  0  0  0  0  0  0  0  0  0
   51.9911   -4.0221   -7.7325 C   0  0  0  0  0  0  0  0  0  0  0  0
   52.5445   -2.9494   -8.3801 O   0  0  0  0  0  0  0  0  0  0  0  0
   50.8231   -5.8784   -3.5828 H   0  0  0  0  0  0  0  0  0  0  0  0
   51.8792   -7.2623   -7.7925 H   0  0  0  0  0  0  0  0  0  0  0  0
   54.9971   -4.7605   -7.5766 H   0  0  0  0  0  0  0  0  0  0  0  0
   53.4488   -2.7213   -8.0675 H   0  0  0  0  0  0  0  0  0  0  0  0
   50.1710   -1.5947   -7.6459 O   0  0  0  0  0  0  0  0  0  0  0  0
   49.8622   -2.8450   -7.1377 C   0  0  0  0  0  0  0  0  0  0  0  0
   50.7217   -1.0508   -7.0116 H   0  0  0  0  0  0  0  0  0  0  0  0
 15 16  1  0  0  0
 16  1  1  0  0  0
  1  2  1  0  0  0
  2  3  1  0  0  0
  3  4  1  0  0  0
  3  5  1  0  0  0
  5  6  1  0  0  0
  5  7  1  0  0  0
  7  8  1  0  0  0
  7  9  1  0  0  0
  9 10  1  0  0  0
  9  1  1  0  0  0
 15 17  1  0  0  0
  4 11  1  0  0  0
  6 12  1  0  0  0
  8 13  1  0  0  0
 10 14  1  0  0  0
M  END
> <minimizedAffinity>
-5.18691

> <CNNscore>
0.3792195916

> <CNNaffinity>
2.9176535606

> <CNN_VS>
1.1064313650

> <CNNaffinity_variance>
0.1338346899

$$$$
[H]OC([H])([H])[C@@]1([H])O[C@@]([H])(O[H])[C@@]([H])(O[H])[C@@]([H])(O[H])[C@]1([H])O[H]


 17 17  0  0  0  0  0  0  0  0999 V2000
   52.5103   -4.0658   -8.1389 C   0  0  0  0  0  0  0  0  0  0  0  0
   52.3727   -5.1122   -7.2676 O   0  0  0  0  0  0  0  0  0  0  0  0
   51.0878   -5.6081   -7.1577 C   0  0  0  0  0  0  0  0  0  0  0  0
   51.0967   -6.6953   -6.2972 O   0  0  0  0  0  0  0  0  0  0  0  0
   50.2185   -4.4741   -6.6174 C   0  0  0  0  0  0  0  0  0  0  0  0
   50.9274   -3.8668   -5.5847 O   0  0  0  0  0  0  0  0  0  0  0  0
   50.1929   -3.4572   -7.7647 C   0  0  0  0  0  0  0  0  0  0  0  0
   49.2459   -2.4920   -7.5972 O   0  0  0  0  0  0  0  0  0  0  0  0
   51.6184   -2.8913   -7.8031 C   0  0  0  0  0  0  0  0  0  0  0  0
   51.6463   -1.9467   -8.7949 O   0  0  0  0  0  0  0  0  0  0  0  0
   51.4377   -7.4735   -6.8029 H   0  0  0  0  0  0  0  0  0  0  0  0
   50.3464   -3.4902   -4.8812 H   0  0  0  0  0  0  0  0  0  0  0  0
   48.5861   -2.5665   -8.3561 H   0  0  0  0  0  0  0  0  0  0  0  0
   50.8976   -2.0158   -9.4290 H   0  0  0  0  0  0  0  0  0  0  0  0
   54.2779   -2.8744   -9.2657 O   0  0  0  0  0  0  0  0  0  0  0  0
   53.9694   -3.6697   -8.1752 C   0  0  0  0  0  0  0  0  0  0  0  0
   53.9472   -3.2630  -10.1266 H   0  0  0  0  0  0  0  0  0  0  0  0
 15 16  1  0  0  0
 16  1  1  0  0  0
  1  2  1  0  0  0
  2  3  1  0  0  0
  3  4  1  0  0  0
  3  5  1  0  0  0
  5  6  1  0  0  0
  5  7  1  0  0  0
  7  8  1  0  0  0
  7  9  1  0  0  0
  9 10  1  0  0  0
  9  1  1  0  0  0
 15 17  1  0  0  0
  4 11  1  0  0  0
  6 12  1  0  0  0
  8 13  1  0  0  0
 10 14  1  0  0  0
M  END
> <minimizedAffinity>
-4.94747

> <CNNscore>
0.3665904403

> <CNNaffinity>
2.9477107525

> <CNN_VS>
1.0806025267

> <CNNaffinity_variance>
0.1551545560

$$$$
[H]OC([H])([H])[C@@]1([H])O[C@@]([H])(O[H])[C@@]([H])(O[H])[C@@]([H])(O[H])[C@]1([H])O[H]


 17 17  0  0  0  0  0  0  0  0999 V2000
   49.9003   -4.6718   -4.9949 C   0  0  0  0  0  0  0  0  0  0  0  0
   49.6906   -3.5480   -5.7473 O   0  0  0  0  0  0  0  0  0  0  0  0
   49.6671   -3.7618   -7.1121 C   0  0  0  0  0  0  0  0  0  0  0  0
   49.3882   -2.5633   -7.7511 O   0  0  0  0  0  0  0  0  0  0  0  0
   51.0441   -4.2963   -7.5019 C   0  0  0  0  0  0  0  0  0  0  0  0
   51.9907   -3.5242   -6.8342 O   0  0  0  0  0  0  0  0  0  0  0  0
   51.0947   -5.6822   -6.8479 C   0  0  0  0  0  0  0  0  0  0  0  0
   52.1290   -6.4451   -7.3004 O   0  0  0  0  0  0  0  0  0  0  0  0
   51.1846   -5.3901   -5.3444 C   0  0  0  0  0  0  0  0  0  0  0  0
   51.2666   -6.5998   -4.7069 O   0  0  0  0  0  0  0  0  0  0  0  0
   48.4145   -2.4066   -7.6800 H   0  0  0  0  0  0  0  0  0  0  0  0
   52.8392   -3.4319   -7.3300 H   0  0  0  0  0  0  0  0  0  0  0  0
   51.7423   -7.2588   -7.7533 H   0  0  0  0  0  0  0  0  0  0  0  0
   50.9814   -7.3602   -5.2618 H   0  0  0  0  0  0  0  0  0  0  0  0
   49.5344   -5.3399   -2.7073 O   0  0  0  0  0  0  0  0  0  0  0  0
   49.8570   -4.2782   -3.5353 C   0  0  0  0  0  0  0  0  0  0  0  0
   48.7166   -5.8280   -3.0146 H   0  0  0  0  0  0  0  0  0  0  0  0
 15 16  1  0  0  0
 16  1  1  0  0  0
  1  2  1  0  0  0
  2  3  1  0  0  0
  3  4  1  0  0  0
  3  5  1  0  0  0
  5  6  1  0  0  0
  5  7  1  0  0  0
  7  8  1  0  0  0
  7  9  1  0  0  0
  9 10  1  0  0  0
  9  1  1  0  0  0
 15 17  1  0  0  0
  4 11  1  0  0  0
  6 12  1  0  0  0
  8 13  1  0  0  0
 10 14  1  0  0  0
M  END
> <minimizedAffinity>
-4.42605

> <CNNscore>
0.3617428839

> <CNNaffinity>
2.9785957336

> <CNN_VS>
1.0774857998

> <CNNaffinity_variance>
0.1732628047

$$$$
[H]OC([H])([H])[C@@]1([H])O[C@@]([H])(O[H])[C@@]([H])(O[H])[C@@]([H])(O[H])[C@]1([H])O[H]


 17 17  0  0  0  0  0  0  0  0999 V2000
   51.5108   -3.7524   -7.6727 C   0  0  0  0  0  0  0  0  0  0  0  0
   52.3210   -3.0149   -8.4929 O   0  0  0  0  0  0  0  0  0  0  0  0
   53.1473   -3.7603   -9.3117 C   0  0  0  0  0  0  0  0  0  0  0  0
   53.8662   -2.9010  -10.1286 O   0  0  0  0  0  0  0  0  0  0  0  0
   54.0695   -4.5656   -8.3979 C   0  0  0  0  0  0  0  0  0  0  0  0
   54.5091   -3.7065   -7.3946 O   0  0  0  0  0  0  0  0  0  0  0  0
   53.1250   -5.5616   -7.7147 C   0  0  0  0  0  0  0  0  0  0  0  0
   53.7866   -6.5588   -7.0631 O   0  0  0  0  0  0  0  0  0  0  0  0
   52.2767   -4.6968   -6.7732 C   0  0  0  0  0  0  0  0  0  0  0  0
   51.4310   -5.5437   -6.1068 O   0  0  0  0  0  0  0  0  0  0  0  0
   53.2673   -2.6151  -10.8616 H   0  0  0  0  0  0  0  0  0  0  0  0
   55.4126   -3.9244   -7.0623 H   0  0  0  0  0  0  0  0  0  0  0  0
   53.5370   -7.4345   -7.4964 H   0  0  0  0  0  0  0  0  0  0  0  0
   51.3346   -6.4245   -6.5340 H   0  0  0  0  0  0  0  0  0  0  0  0
   50.2548   -1.6949   -7.6176 O   0  0  0  0  0  0  0  0  0  0  0  0
   50.6476   -2.7978   -6.8784 C   0  0  0  0  0  0  0  0  0  0  0  0
   51.0246   -1.2504   -8.0774 H   0  0  0  0  0  0  0  0  0  0  0  0
 15 16  1  0  0  0
 16  1  1  0  0  0
  1  2  1  0  0  0
  2  3  1  0  0  0
  3  4  1  0  0  0
  3  5  1  0  0  0
  5  6  1  0  0  0
  5  7  1  0  0  0
  7  8  1  0  0  0
  7  9  1  0  0  0
  9 10  1  0  0  0
  9  1  1  0  0  0
 15 17  1  0  0  0
  4 11  1  0  0  0
  6 12  1  0  0  0
  8 13  1  0  0  0
 10 14  1  0  0  0
M  END
> <minimizedAffinity>
-5.32666

> <CNNscore>
0.3557477891

> <CNNaffinity>
2.7806336880

> <CNN_VS>
0.9892042875

> <CNNaffinity_variance>
0.1391659826

$$$$
[H]OC([H])([H])[C@@]1([H])O[C@@]([H])(O[H])[C@]([H])(O[H])[C@@]([H])(O[H])[C@]1([H])O[H]


 17 17  0  0  0  0  0  0  0  0999 V2000
   50.5445   -3.2786   -6.3381 C   0  0  0  0  0  0  0  0  0  0  0  0
   49.3540   -2.8528   -5.8360 O   0  0  0  0  0  0  0  0  0  0  0  0
   49.0984   -3.1356   -4.5289 C   0  0  0  0  0  0  0  0  0  0  0  0
   47.7710   -2.7415   -4.2615 O   0  0  0  0  0  0  0  0  0  0  0  0
   49.2346   -4.6392   -4.2654 C   0  0  0  0  0  0  0  0  0  0  0  0
   48.8213   -4.9906   -3.0100 O   0  0  0  0  0  0  0  0  0  0  0  0
   50.7209   -4.9383   -4.4952 C   0  0  0  0  0  0  0  0  0  0  0  0
   51.0463   -6.2244   -4.1565 O   0  0  0  0  0  0  0  0  0  0  0  0
   50.9589   -4.6542   -5.9609 C   0  0  0  0  0  0  0  0  0  0  0  0
   52.3208   -4.8198   -6.2108 O   0  0  0  0  0  0  0  0  0  0  0  0
   47.7860   -1.7455   -4.3342 H   0  0  0  0  0  0  0  0  0  0  0  0
   48.5763   -5.9539   -3.0259 H   0  0  0  0  0  0  0  0  0  0  0  0
   51.7070   -6.1892   -3.4169 H   0  0  0  0  0  0  0  0  0  0  0  0
   52.8142   -5.0918   -5.3973 H   0  0  0  0  0  0  0  0  0  0  0  0
   51.2587   -2.2513   -8.3954 O   0  0  0  0  0  0  0  0  0  0  0  0
   50.4334   -3.2387   -7.8692 C   0  0  0  0  0  0  0  0  0  0  0  0
   50.9984   -1.3492   -8.0941 H   0  0  0  0  0  0  0  0  0  0  0  0
 15 16  1  0  0  0
 16  1  1  0  0  0
  1  2  1  0  0  0
  2  3  1  0  0  0
  3  4  1  0  0  0
  3  5  1  0  0  0
  5  6  1  0  0  0
  5  7  1  0  0  0
  7  8  1  0  0  0
  7  9  1  0  0  0
  9 10  1  0  0  0
  9  1  1  0  0  0
 15 17  1  0  0  0
  4 11  1  0  0  0
  6 12  1  0  0  0
  8 13  1  0  0  0
 10 14  1  0  0  0
M  END
> <minimizedAffinity>
-5.27514

> <CNNscore>
0.5450588465

> <CNNaffinity>
3.3429958820

> <CNN_VS>
1.8221294880

> <CNNaffinity_variance>
0.1444576383

$$$$
[H]OC([H])([H])[C@@]1([H])O[C@@]([H])(O[H])[C@]([H])(O[H])[C@@]([H])(O[H])[C@]1([H])O[H]


 17 17  0  0  0  0  0  0  0  0999 V2000
   51.8689   -4.9529   -6.8773 C   0  0  0  0  0  0  0  0  0  0  0  0
   52.1490   -4.2336   -7.9974 O   0  0  0  0  0  0  0  0  0  0  0  0
   51.8521   -2.9051   -7.9685 C   0  0  0  0  0  0  0  0  0  0  0  0
   52.0809   -2.3912   -9.2617 O   0  0  0  0  0  0  0  0  0  0  0  0
   50.3805   -2.6888   -7.5993 C   0  0  0  0  0  0  0  0  0  0  0  0
   49.9954   -1.3826   -7.7251 O   0  0  0  0  0  0  0  0  0  0  0  0
   50.2663   -3.1942   -6.1560 C   0  0  0  0  0  0  0  0  0  0  0  0
   49.0349   -2.9366   -5.6157 O   0  0  0  0  0  0  0  0  0  0  0  0
   50.5603   -4.6751   -6.2318 C   0  0  0  0  0  0  0  0  0  0  0  0
   50.5628   -5.1756   -4.9302 O   0  0  0  0  0  0  0  0  0  0  0  0
   53.0701   -2.4539   -9.3848 H   0  0  0  0  0  0  0  0  0  0  0  0
   49.0089   -1.3638   -7.8467 H   0  0  0  0  0  0  0  0  0  0  0  0
   49.1610   -2.3322   -4.8387 H   0  0  0  0  0  0  0  0  0  0  0  0
   50.3642   -4.4711   -4.2643 H   0  0  0  0  0  0  0  0  0  0  0  0
   50.5796   -6.9339   -7.3374 O   0  0  0  0  0  0  0  0  0  0  0  0
   51.8763   -6.4361   -7.2750 C   0  0  0  0  0  0  0  0  0  0  0  0
   50.1268   -6.9035   -6.4619 H   0  0  0  0  0  0  0  0  0  0  0  0
 15 16  1  0  0  0
 16  1  1  0  0  0
  1  2  1  0  0  0
  2  3  1  0  0  0
  3  4  1  0  0  0
  3  5  1  0  0  0
  5  6  1  0  0  0
  5  7  1  0  0  0
  7  8  1  0  0  0
  7  9  1  0  0  0
  9 10  1  0  0  0
  9  1  1  0  0  0
 15 17  1  0  0  0
  4 11  1  0  0  0
  6 12  1  0  0  0
  8 13  1  0  0  0
 10 14  1  0  0  0
M  END
> <minimizedAffinity>
-5.65558

> <CNNscore>
0.4865863621

> <CNNaffinity>
3.2239570618

> <CNN_VS>
1.5687335730

> <CNNaffinity_variance>
0.2391931266

$$$$
[H]OC([H])([H])[C@@]1([H])O[C@@]([H])(O[H])[C@]([H])(O[H])[C@@]([H])(O[H])[C@]1([H])O[H]


 17 17  0  0  0  0  0  0  0  0999 V2000
   51.0322   -3.7237   -7.6401 C   0  0  0  0  0  0  0  0  0  0  0  0
   51.4045   -4.8565   -6.9853 O   0  0  0  0  0  0  0  0  0  0  0  0
   50.5223   -5.3657   -6.0817 C   0  0  0  0  0  0  0  0  0  0  0  0
   51.1610   -6.4364   -5.4227 O   0  0  0  0  0  0  0  0  0  0  0  0
   50.1356   -4.3031   -5.0472 C   0  0  0  0  0  0  0  0  0  0  0  0
   49.3873   -4.8162   -4.0240 O   0  0  0  0  0  0  0  0  0  0  0  0
   49.3752   -3.2411   -5.8504 C   0  0  0  0  0  0  0  0  0  0  0  0
   48.8263   -2.2801   -5.0442 O   0  0  0  0  0  0  0  0  0  0  0  0
   50.3923   -2.6697   -6.8119 C   0  0  0  0  0  0  0  0  0  0  0  0
   49.7332   -1.7592   -7.6372 O   0  0  0  0  0  0  0  0  0  0  0  0
   51.2723   -7.1344   -6.1285 H   0  0  0  0  0  0  0  0  0  0  0  0
   49.4900   -4.2163   -3.2379 H   0  0  0  0  0  0  0  0  0  0  0  0
   47.8406   -2.3140   -5.1536 H   0  0  0  0  0  0  0  0  0  0  0  0
   48.7737   -1.6818   -7.4079 H   0  0  0  0  0  0  0  0  0  0  0  0
   51.9891   -2.3635   -9.3815 O   0  0  0  0  0  0  0  0  0  0  0  0
   52.3012   -3.1146   -8.2539 C   0  0  0  0  0  0  0  0  0  0  0  0
   51.5944   -2.9143  -10.0980 H   0  0  0  0  0  0  0  0  0  0  0  0
 15 16  1  0  0  0
 16  1  1  0  0  0
  1  2  1  0  0  0
  2  3  1  0  0  0
  3  4  1  0  0  0
  3  5  1  0  0  0
  5  6  1  0  0  0
  5  7  1  0  0  0
  7  8  1  0  0  0
  7  9  1  0  0  0
  9 10  1  0  0  0
  9  1  1  0  0  0
 15 17  1  0  0  0
  4 11  1  0  0  0
  6 12  1  0  0  0
  8 13  1  0  0  0
 10 14  1  0  0  0
M  END
> <minimizedAffinity>
-5.72266

> <CNNscore>
0.4841884077

> <CNNaffinity>
3.2769634724

> <CNN_VS>
1.5866677761

> <CNNaffinity_variance>
0.1558146924

$$$$
[H]OC([H])([H])[C@@]1([H])O[C@@]([H])(O[H])[C@]([H])(O[H])[C@@]([H])(O[H])[C@]1([H])O[H]


 17 17  0  0  0  0  0  0  0  0999 V2000
   49.7684   -4.1750   -5.3648 C   0  0  0  0  0  0  0  0  0  0  0  0
   49.6910   -2.9613   -5.9742 O   0  0  0  0  0  0  0  0  0  0  0  0
   50.1656   -2.8781   -7.2476 C   0  0  0  0  0  0  0  0  0  0  0  0
   50.1256   -1.5205   -7.6273 O   0  0  0  0  0  0  0  0  0  0  0  0
   51.6146   -3.3725   -7.3169 C   0  0  0  0  0  0  0  0  0  0  0  0
   52.1869   -3.1479   -8.5384 O   0  0  0  0  0  0  0  0  0  0  0  0
   51.5296   -4.8657   -6.9782 C   0  0  0  0  0  0  0  0  0  0  0  0
   52.7322   -5.5000   -7.1394 O   0  0  0  0  0  0  0  0  0  0  0  0
   51.0408   -4.9192   -5.5487 C   0  0  0  0  0  0  0  0  0  0  0  0
   50.8538   -6.2597   -5.2128 O   0  0  0  0  0  0  0  0  0  0  0  0
   49.1521   -1.3030   -7.6771 H   0  0  0  0  0  0  0  0  0  0  0  0
   53.1734   -3.1279   -8.4163 H   0  0  0  0  0  0  0  0  0  0  0  0
   52.6231   -6.1904   -7.8439 H   0  0  0  0  0  0  0  0  0  0  0  0
   51.0886   -6.8631   -5.9610 H   0  0  0  0  0  0  0  0  0  0  0  0
   48.9570   -5.0259   -3.2635 O   0  0  0  0  0  0  0  0  0  0  0  0
   49.5904   -3.9402   -3.8578 C   0  0  0  0  0  0  0  0  0  0  0  0
   48.0451   -5.1620   -3.6131 H   0  0  0  0  0  0  0  0  0  0  0  0
 15 16  1  0  0  0
 16  1  1  0  0  0
  1  2  1  0  0  0
  2  3  1  0  0  0
  3  4  1  0  0  0
  3  5  1  0  0  0
  5  6  1  0  0  0
  5  7  1  0  0  0
  7  8  1  0  0  0
  7  9  1  0  0  0
  9 10  1  0  0  0
  9  1  1  0  0  0
 15 17  1  0  0  0
  4 11  1  0  0  0
  6 12  1  0  0  0
  8 13  1  0  0  0
 10 14  1  0  0  0
M  END
> <minimizedAffinity>
-5.49902

> <CNNscore>
0.4495181143

> <CNNaffinity>
3.1654021740

> <CNN_VS>
1.4229055643

> <CNNaffinity_variance>
0.1524535716

$$$$
[H]OC([H])([H])[C@@]1([H])O[C@@]([H])(O[H])[C@]([H])(O[H])[C@@]([H])(O[H])[C@]1([H])O[H]


 17 17  0  0  0  0  0  0  0  0999 V2000
   51.0859   -6.6506   -1.7341 C   0  0  0  0  0  0  0  0  0  0  0  0
   50.2195   -7.5920   -1.2721 O   0  0  0  0  0  0  0  0  0  0  0  0
   50.7612   -8.6993   -0.6941 C   0  0  0  0  0  0  0  0  0  0  0  0
   49.7068   -9.5966   -0.4259 O   0  0  0  0  0  0  0  0  0  0  0  0
   51.7580   -9.3715   -1.6445 C   0  0  0  0  0  0  0  0  0  0  0  0
   52.1972  -10.5784   -1.1750 O   0  0  0  0  0  0  0  0  0  0  0  0
   52.8959   -8.3542   -1.7929 C   0  0  0  0  0  0  0  0  0  0  0  0
   53.9514   -8.8614   -2.5024 O   0  0  0  0  0  0  0  0  0  0  0  0
   52.2701   -7.1581   -2.4735 C   0  0  0  0  0  0  0  0  0  0  0  0
   53.2389   -6.1582   -2.5522 O   0  0  0  0  0  0  0  0  0  0  0  0
   49.1685   -9.1455    0.2843 H   0  0  0  0  0  0  0  0  0  0  0  0
   52.5112  -11.1140   -1.9515 H   0  0  0  0  0  0  0  0  0  0  0  0
   54.7445   -8.8736   -1.9060 H   0  0  0  0  0  0  0  0  0  0  0  0
   54.1021   -6.4504   -2.1668 H   0  0  0  0  0  0  0  0  0  0  0  0
   50.8485   -4.4641   -2.7146 O   0  0  0  0  0  0  0  0  0  0  0  0
   50.3029   -5.7428   -2.6938 C   0  0  0  0  0  0  0  0  0  0  0  0
   50.7915   -4.0208   -1.8356 H   0  0  0  0  0  0  0  0  0  0  0  0
 15 16  1  0  0  0
 16  1  1  0  0  0
  1  2  1  0  0  0
  2  3  1  0  0  0
  3  4  1  0  0  0
  3  5  1  0  0  0
  5  6  1  0  0  0
  5  7  1  0  0  0
  7  8  1  0  0  0
  7  9  1  0  0  0
  9 10  1  0  0  0
  9  1  1  0  0  0
 15 17  1  0  0  0
  4 11  1  0  0  0
  6 12  1  0  0  0
  8 13  1  0  0  0
 10 14  1  0  0  0
M  END
> <minimizedAffinity>
-4.39874

> <CNNscore>
0.4479370117

> <CNNaffinity>
3.0461637974

> <CNN_VS>
1.3644895554

> <CNNaffinity_variance>
0.1802384704

$$$$
[H]OC([H])([H])[C@@]1([H])O[C@@]([H])(O[H])[C@]([H])(O[H])[C@@]([H])(O[H])[C@]1([H])O[H]


 17 17  0  0  0  0  0  0  0  0999 V2000
   51.1379   -4.7616   -5.4221 C   0  0  0  0  0  0  0  0  0  0  0  0
   49.9027   -4.6138   -4.8717 O   0  0  0  0  0  0  0  0  0  0  0  0
   49.8201   -4.6759   -3.5140 C   0  0  0  0  0  0  0  0  0  0  0  0
   48.4526   -4.6482   -3.1707 O   0  0  0  0  0  0  0  0  0  0  0  0
   50.4380   -5.9787   -2.9948 C   0  0  0  0  0  0  0  0  0  0  0  0
   50.2249   -6.1626   -1.6565 O   0  0  0  0  0  0  0  0  0  0  0  0
   51.9282   -5.8627   -3.3376 C   0  0  0  0  0  0  0  0  0  0  0  0
   52.6607   -6.8907   -2.8073 O   0  0  0  0  0  0  0  0  0  0  0  0
   51.9852   -5.8382   -4.8481 C   0  0  0  0  0  0  0  0  0  0  0  0
   53.3142   -5.6392   -5.2206 O   0  0  0  0  0  0  0  0  0  0  0  0
   48.1483   -3.7322   -3.4276 H   0  0  0  0  0  0  0  0  0  0  0  0
   50.2962   -7.1356   -1.4652 H   0  0  0  0  0  0  0  0  0  0  0  0
   53.3152   -6.5041   -2.1694 H   0  0  0  0  0  0  0  0  0  0  0  0
   53.9112   -5.5726   -4.4343 H   0  0  0  0  0  0  0  0  0  0  0  0
   51.3486   -6.3805   -7.1921 O   0  0  0  0  0  0  0  0  0  0  0  0
   50.9379   -5.0824   -6.9104 C   0  0  0  0  0  0  0  0  0  0  0  0
   52.3122   -6.5100   -7.0273 H   0  0  0  0  0  0  0  0  0  0  0  0
 15 16  1  0  0  0
 16  1  1  0  0  0
  1  2  1  0  0  0
  2  3  1  0  0  0
  3  4  1  0  0  0
  3  5  1  0  0  0
  5  6  1  0  0  0
  5  7  1  0  0  0
  7  8  1  0  0  0
  7  9  1  0  0  0
  9 10  1  0  0  0
  9  1  1  0  0  0
 15 17  1  0  0  0
  4 11  1  0  0  0
  6 12  1  0  0  0
  8 13  1  0  0  0
 10 14  1  0  0  0
M  END
> <minimizedAffinity>
-4.50796

> <CNNscore>
0.4364549220

> <CNNaffinity>
3.1297829151

> <CNN_VS>
1.3660091162

> <CNNaffinity_variance>
0.1474451721

$$$$
[H]OC([H])([H])[C@@]1([H])O[C@@]([H])(O[H])[C@]([H])(O[H])[C@@]([H])(O[H])[C@]1([H])O[H]


 17 17  0  0  0  0  0  0  0  0999 V2000
   51.6211   -4.9425   -6.6198 C   0  0  0  0  0  0  0  0  0  0  0  0
   50.6475   -4.3330   -5.8910 O   0  0  0  0  0  0  0  0  0  0  0  0
   49.8554   -3.4387   -6.5442 C   0  0  0  0  0  0  0  0  0  0  0  0
   49.0256   -2.8257   -5.5827 O   0  0  0  0  0  0  0  0  0  0  0  0
   50.7061   -2.3624   -7.2273 C   0  0  0  0  0  0  0  0  0  0  0  0
   49.9495   -1.3502   -7.7499 O   0  0  0  0  0  0  0  0  0  0  0  0
   51.4931   -3.1185   -8.3046 C   0  0  0  0  0  0  0  0  0  0  0  0
   52.2027   -2.2722   -9.1138 O   0  0  0  0  0  0  0  0  0  0  0  0
   52.3890   -4.0698   -7.5445 C   0  0  0  0  0  0  0  0  0  0  0  0
   53.0655   -4.8545   -8.4779 O   0  0  0  0  0  0  0  0  0  0  0  0
   48.4220   -3.5573   -5.2698 H   0  0  0  0  0  0  0  0  0  0  0  0
   50.5263   -0.5442   -7.8271 H   0  0  0  0  0  0  0  0  0  0  0  0
   51.8585   -2.3720  -10.0393 H   0  0  0  0  0  0  0  0  0  0  0  0
   52.8248   -4.6121   -9.4065 H   0  0  0  0  0  0  0  0  0  0  0  0
   53.9193   -5.1500   -5.9318 O   0  0  0  0  0  0  0  0  0  0  0  0
   52.6227   -5.5478   -5.6256 C   0  0  0  0  0  0  0  0  0  0  0  0
   54.2080   -5.4725   -6.8178 H   0  0  0  0  0  0  0  0  0  0  0  0
 15 16  1  0  0  0
 16  1  1  0  0  0
  1  2  1  0  0  0
  2  3  1  0  0  0
  3  4  1  0  0  0
  3  5  1  0  0  0
  5  6  1  0  0  0
  5  7  1  0  0  0
  7  8  1  0  0  0
  7  9  1  0  0  0
  9 10  1  0  0  0
  9  1  1  0  0  0
 15 17  1  0  0  0
  4 11  1  0  0  0
  6 12  1  0  0  0
  8 13  1  0  0  0
 10 14  1  0  0  0
M  END
> <minimizedAffinity>
-5.46061

> <CNNscore>
0.4293942451

> <CNNaffinity>
3.0391452312

> <CNN_VS>
1.3049914837

> <CNNaffinity_variance>
0.1701307595

$$$$
[H]OC([H])([H])[C@@]1([H])O[C@@]([H])(O[H])[C@]([H])(O[H])[C@@]([H])(O[H])[C@]1([H])O[H]


 17 17  0  0  0  0  0  0  0  0999 V2000
   55.8455   -3.8791   -9.6757 C   0  0  0  0  0  0  0  0  0  0  0  0
   56.3517   -4.5806   -8.6258 O   0  0  0  0  0  0  0  0  0  0  0  0
   57.6837   -4.8611   -8.6553 C   0  0  0  0  0  0  0  0  0  0  0  0
   57.9627   -5.7090   -7.5636 O   0  0  0  0  0  0  0  0  0  0  0  0
   58.0544   -5.5837   -9.9550 C   0  0  0  0  0  0  0  0  0  0  0  0
   59.3450   -6.0361   -9.9531 O   0  0  0  0  0  0  0  0  0  0  0  0
   57.8007   -4.5489  -11.0579 C   0  0  0  0  0  0  0  0  0  0  0  0
   58.2242   -4.9877  -12.2837 O   0  0  0  0  0  0  0  0  0  0  0  0
   56.3112   -4.2929  -11.0242 C   0  0  0  0  0  0  0  0  0  0  0  0
   56.0314   -3.2859  -11.9474 O   0  0  0  0  0  0  0  0  0  0  0  0
   57.8153   -5.1370   -6.7581 H   0  0  0  0  0  0  0  0  0  0  0  0
   59.4088   -6.7845  -10.6044 H   0  0  0  0  0  0  0  0  0  0  0  0
   58.9379   -4.3747  -12.5995 H   0  0  0  0  0  0  0  0  0  0  0  0
   56.8470   -2.9793  -12.4165 H   0  0  0  0  0  0  0  0  0  0  0  0
   53.6855   -2.8866  -10.0596 O   0  0  0  0  0  0  0  0  0  0  0  0
   54.3200   -4.0527   -9.6462 C   0  0  0  0  0  0  0  0  0  0  0  0
   53.8708   -2.1284   -9.4571 H   0  0  0  0  0  0  0  0  0  0  0  0
 15 16  1  0  0  0
 16  1  1  0  0  0
  1  2  1  0  0  0
  2  3  1  0  0  0
  3  4  1  0  0  0
  3  5  1  0  0  0
  5  6  1  0  0  0
  5  7  1  0  0  0
  7  8  1  0  0  0
  7  9  1  0  0  0
  9 10  1  0  0  0
  9  1  1  0  0  0
 15 17  1  0  0  0
  4 11  1  0  0  0
  6 12  1  0  0  0
  8 13  1  0  0  0
 10 14  1  0  0  0
M  END
> <minimizedAffinity>
-5.95865

> <CNNscore>
0.4261191487

> <CNNaffinity>
2.8087887764

> <CNN_VS>
1.1968786716

> <CNNaffinity_variance>
0.1418907344

$$$$
[H]OC([H])([H])[C@@]1([H])O[C@@]([H])(O[H])[C@]([H])(O[H])[C@@]([H])(O[H])[C@]1([H])O[H]


 17 17  0  0  0  0  0  0  0  0999 V2000
   53.0486   -3.9478   -8.5138 C   0  0  0  0  0  0  0  0  0  0  0  0
   53.1497   -4.8659   -7.5151 O   0  0  0  0  0  0  0  0  0  0  0  0
   51.9949   -5.2327   -6.8941 C   0  0  0  0  0  0  0  0  0  0  0  0
   52.3422   -6.0663   -5.8110 O   0  0  0  0  0  0  0  0  0  0  0  0
   51.2556   -4.0017   -6.3585 C   0  0  0  0  0  0  0  0  0  0  0  0
   50.1809   -4.3334   -5.5807 O   0  0  0  0  0  0  0  0  0  0  0  0
   50.8484   -3.2198   -7.6132 C   0  0  0  0  0  0  0  0  0  0  0  0
   50.0427   -2.1532   -7.3170 O   0  0  0  0  0  0  0  0  0  0  0  0
   52.1503   -2.7940   -8.2530 C   0  0  0  0  0  0  0  0  0  0  0  0
   51.8451   -2.1552   -9.4545 O   0  0  0  0  0  0  0  0  0  0  0  0
   52.7049   -6.8934   -6.2377 H   0  0  0  0  0  0  0  0  0  0  0  0
   49.9870   -3.5646   -4.9810 H   0  0  0  0  0  0  0  0  0  0  0  0
   49.1671   -2.2972   -7.7614 H   0  0  0  0  0  0  0  0  0  0  0  0
   50.8690   -2.1122   -9.6112 H   0  0  0  0  0  0  0  0  0  0  0  0
   54.4402   -1.9947   -8.7301 O   0  0  0  0  0  0  0  0  0  0  0  0
   54.4560   -3.3847   -8.7589 C   0  0  0  0  0  0  0  0  0  0  0  0
   53.8811   -1.6139   -9.4476 H   0  0  0  0  0  0  0  0  0  0  0  0
 15 16  1  0  0  0
 16  1  1  0  0  0
  1  2  1  0  0  0
  2  3  1  0  0  0
  3  4  1  0  0  0
  3  5  1  0  0  0
  5  6  1  0  0  0
  5  7  1  0  0  0
  7  8  1  0  0  0
  7  9  1  0  0  0
  9 10  1  0  0  0
  9  1  1  0  0  0
 15 17  1  0  0  0
  4 11  1  0  0  0
  6 12  1  0  0  0
  8 13  1  0  0  0
 10 14  1  0  0  0
M  END
> <minimizedAffinity>
-5.91469

> <CNNscore>
0.4134823978

> <CNNaffinity>
2.9899601936

> <CNN_VS>
1.2362959385

> <CNNaffinity_variance>
0.1415695101

$$$$
[H]OC([H])([H])[C@@]1([H])O[C@@]([H])(O[H])[C@@]([H])(O[H])[C@@]([H])(O[H])[C@@]1([H])O[H]


 17 17  0  0  0  0  0  0  0  0999 V2000
   51.8179   -4.2079   -7.0628 C   0  0  0  0  0  0  0  0  0  0  0  0
   52.6531   -4.8496   -7.9604 O   0  0  0  0  0  0  0  0  0  0  0  0
   53.8993   -4.2336   -7.8850 C   0  0  0  0  0  0  0  0  0  0  0  0
   54.8593   -4.9633   -8.6003 O   0  0  0  0  0  0  0  0  0  0  0  0
   53.8163   -2.8109   -8.3377 C   0  0  0  0  0  0  0  0  0  0  0  0
   54.5766   -2.6736   -9.4982 O   0  0  0  0  0  0  0  0  0  0  0  0
   52.3956   -2.3965   -8.6400 C   0  0  0  0  0  0  0  0  0  0  0  0
   52.0427   -2.9920   -9.8503 O   0  0  0  0  0  0  0  0  0  0  0  0
   51.4227   -2.8651   -7.5776 C   0  0  0  0  0  0  0  0  0  0  0  0
   50.1538   -2.8933   -8.1405 O   0  0  0  0  0  0  0  0  0  0  0  0
   55.5416   -5.3383   -8.0131 H   0  0  0  0  0  0  0  0  0  0  0  0
   54.0313   -2.7986  -10.3264 H   0  0  0  0  0  0  0  0  0  0  0  0
   51.7800   -2.3039  -10.5278 H   0  0  0  0  0  0  0  0  0  0  0  0
   50.0426   -2.0196   -8.6126 H   0  0  0  0  0  0  0  0  0  0  0  0
   50.0040   -4.4436   -5.5813 O   0  0  0  0  0  0  0  0  0  0  0  0
   50.6502   -5.0670   -6.6467 C   0  0  0  0  0  0  0  0  0  0  0  0
   50.5952   -3.7780   -5.1826 H   0  0  0  0  0  0  0  0  0  0  0  0
 15 16  1  0  0  0
 16  1  1  0  0  0
  1  2  1  0  0  0
  2  3  1  0  0  0
  3  4  1  0  0  0
  3  5  1  0  0  0
  5  6  1  0  0  0
  5  7  1  0  0  0
  7  8  1  0  0  0
  7  9  1  0  0  0
  9 10  1  0  0  0
  9  1  1  0  0  0
 15 17  1  0  0  0
  4 11  1  0  0  0
  6 12  1  0  0  0
  8 13  1  0  0  0
 10 14  1  0  0  0
M  END
> <minimizedAffinity>
-5.10227

> <CNNscore>
0.5233873725

> <CNNaffinity>
3.2217743397

> <CNN_VS>
1.6862360239

> <CNNaffinity_variance>
0.0064891600

$$$$
[H]OC([H])([H])[C@@]1([H])O[C@@]([H])(O[H])[C@@]([H])(O[H])[C@@]([H])(O[H])[C@@]1([H])O[H]


 17 17  0  0  0  0  0  0  0  0999 V2000
   51.5923   -4.6879   -6.1968 C   0  0  0  0  0  0  0  0  0  0  0  0
   51.8257   -4.9352   -7.5383 O   0  0  0  0  0  0  0  0  0  0  0  0
   52.6351   -3.9088   -8.0174 C   0  0  0  0  0  0  0  0  0  0  0  0
   53.0966   -4.2005   -9.3088 O   0  0  0  0  0  0  0  0  0  0  0  0
   51.9214   -2.5964   -7.9540 C   0  0  0  0  0  0  0  0  0  0  0  0
   51.7327   -2.1351   -9.2561 O   0  0  0  0  0  0  0  0  0  0  0  0
   50.5724   -2.7189   -7.2856 C   0  0  0  0  0  0  0  0  0  0  0  0
   49.7193   -3.3449   -8.1936 O   0  0  0  0  0  0  0  0  0  0  0  0
   50.6296   -3.5614   -6.0279 C   0  0  0  0  0  0  0  0  0  0  0  0
   49.3483   -4.0271   -5.7651 O   0  0  0  0  0  0  0  0  0  0  0  0
   54.0635   -4.3259   -9.3288 H   0  0  0  0  0  0  0  0  0  0  0  0
   50.8496   -2.4125   -9.6331 H   0  0  0  0  0  0  0  0  0  0  0  0
   48.9259   -2.7702   -8.3981 H   0  0  0  0  0  0  0  0  0  0  0  0
   48.7455   -3.2342   -5.8448 H   0  0  0  0  0  0  0  0  0  0  0  0
   51.1836   -5.6318   -4.0797 O   0  0  0  0  0  0  0  0  0  0  0  0
   51.2082   -5.9343   -5.4395 C   0  0  0  0  0  0  0  0  0  0  0  0
   51.6769   -4.8061   -3.9178 H   0  0  0  0  0  0  0  0  0  0  0  0
 15 16  1  0  0  0
 16  1  1  0  0  0
  1  2  1  0  0  0
  2  3  1  0  0  0
  3  4  1  0  0  0
  3  5  1  0  0  0
  5  6  1  0  0  0
  5  7  1  0  0  0
  7  8  1  0  0  0
  7  9  1  0  0  0
  9 10  1  0  0  0
  9  1  1  0  0  0
 15 17  1  0  0  0
  4 11  1  0  0  0
  6 12  1  0  0  0
  8 13  1  0  0  0
 10 14  1  0  0  0
M  END
> <minimizedAffinity>
-4.86116

> <CNNscore>
0.5094412565

> <CNNaffinity>
3.2956995964

> <CNN_VS>
1.6789653301

> <CNNaffinity_variance>
0.0614550635

$$$$
[H]OC([H])([H])[C@@]1([H])O[C@@]([H])(O[H])[C@@]([H])(O[H])[C@@]([H])(O[H])[C@@]1([H])O[H]


 17 17  0  0  0  0  0  0  0  0999 V2000
   50.2273   -3.5278   -6.0351 C   0  0  0  0  0  0  0  0  0  0  0  0
   49.1782   -4.1489   -5.3805 O   0  0  0  0  0  0  0  0  0  0  0  0
   49.4475   -4.0958   -4.0157 C   0  0  0  0  0  0  0  0  0  0  0  0
   48.3323   -4.5067   -3.2719 O   0  0  0  0  0  0  0  0  0  0  0  0
   50.6718   -4.8881   -3.6851 C   0  0  0  0  0  0  0  0  0  0  0  0
   50.2967   -5.9607   -2.8773 O   0  0  0  0  0  0  0  0  0  0  0  0
   51.3455   -5.4297   -4.9238 C   0  0  0  0  0  0  0  0  0  0  0  0
   50.5648   -6.4883   -5.3865 O   0  0  0  0  0  0  0  0  0  0  0  0
   51.4419   -4.3932   -6.0243 C   0  0  0  0  0  0  0  0  0  0  0  0
   51.5963   -5.0621   -7.2311 O   0  0  0  0  0  0  0  0  0  0  0  0
   47.9616   -3.7775   -2.7410 H   0  0  0  0  0  0  0  0  0  0  0  0
   50.1038   -6.7859   -3.4072 H   0  0  0  0  0  0  0  0  0  0  0  0
   51.0939   -7.3369   -5.4245 H   0  0  0  0  0  0  0  0  0  0  0  0
   52.3127   -5.7420   -7.0793 H   0  0  0  0  0  0  0  0  0  0  0  0
   50.2226   -1.7044   -7.5235 O   0  0  0  0  0  0  0  0  0  0  0  0
   49.8412   -3.0395   -7.4088 C   0  0  0  0  0  0  0  0  0  0  0  0
   50.3791   -1.3300   -6.6365 H   0  0  0  0  0  0  0  0  0  0  0  0
 15 16  1  0  0  0
 16  1  1  0  0  0
  1  2  1  0  0  0
  2  3  1  0  0  0
  3  4  1  0  0  0
  3  5  1  0  0  0
  5  6  1  0  0  0
  5  7  1  0  0  0
  7  8  1  0  0  0
  7  9  1  0  0  0
  9 10  1  0  0  0
  9  1  1  0  0  0
 15 17  1  0  0  0
  4 11  1  0  0  0
  6 12  1  0  0  0
  8 13  1  0  0  0
 10 14  1  0  0  0
M  END
> <minimizedAffinity>
-4.60070

> <CNNscore>
0.5071470141

> <CNNaffinity>
3.2150714397

> <CNN_VS>
1.6305139065

> <CNNaffinity_variance>
0.0622128733

$$$$
[H]OC([H])([H])[C@@]1([H])O[C@@]([H])(O[H])[C@@]([H])(O[H])[C@@]([H])(O[H])[C@@]1([H])O[H]


 17 17  0  0  0  0  0  0  0  0999 V2000
   51.7455   -3.5167   -7.4270 C   0  0  0  0  0  0  0  0  0  0  0  0
   52.1621   -4.8153   -7.6615 O   0  0  0  0  0  0  0  0  0  0  0  0
   53.4336   -4.9518   -7.1112 C   0  0  0  0  0  0  0  0  0  0  0  0
   53.8352   -6.2951   -7.1127 O   0  0  0  0  0  0  0  0  0  0  0  0
   54.4134   -4.0670   -7.8135 C   0  0  0  0  0  0  0  0  0  0  0  0
   55.3495   -4.8733   -8.4596 O   0  0  0  0  0  0  0  0  0  0  0  0
   53.7434   -3.1867   -8.8419 C   0  0  0  0  0  0  0  0  0  0  0  0
   53.4207   -3.9977   -9.9292 O   0  0  0  0  0  0  0  0  0  0  0  0
   52.4662   -2.5626   -8.3183 C   0  0  0  0  0  0  0  0  0  0  0  0
   51.6862   -2.2028   -9.4091 O   0  0  0  0  0  0  0  0  0  0  0  0
   53.9277   -6.6470   -6.2080 H   0  0  0  0  0  0  0  0  0  0  0  0
   55.0941   -5.0678   -9.4062 H   0  0  0  0  0  0  0  0  0  0  0  0
   53.8549   -3.6662  -10.7678 H   0  0  0  0  0  0  0  0  0  0  0  0
   52.2954   -1.7173  -10.0349 H   0  0  0  0  0  0  0  0  0  0  0  0
   49.9258   -2.0265   -7.3366 O   0  0  0  0  0  0  0  0  0  0  0  0
   50.2446   -3.3759   -7.4730 C   0  0  0  0  0  0  0  0  0  0  0  0
   50.6901   -1.5436   -6.9705 H   0  0  0  0  0  0  0  0  0  0  0  0
 15 16  1  0  0  0
 16  1  1  0  0  0
  1  2  1  0  0  0
  2  3  1  0  0  0
  3  4  1  0  0  0
  3  5  1  0  0  0
  5  6  1  0  0  0
  5  7  1  0  0  0
  7  8  1  0  0  0
  7  9  1  0  0  0
  9 10  1  0  0  0
  9  1  1  0  0  0
 15 17  1  0  0  0
  4 11  1  0  0  0
  6 12  1  0  0  0
  8 13  1  0  0  0
 10 14  1  0  0  0
M  END
> <minimizedAffinity>
-5.48435

> <CNNscore>
0.4722165465

> <CNNaffinity>
3.0621352196

> <CNN_VS>
1.4459909201

> <CNNaffinity_variance>
0.0416137874

$$$$
[H]OC([H])([H])[C@@]1([H])O[C@@]([H])(O[H])[C@@]([H])(O[H])[C@@]([H])(O[H])[C@@]1([H])O[H]


 17 17  0  0  0  0  0  0  0  0999 V2000
   51.3121   -3.6412   -7.7715 C   0  0  0  0  0  0  0  0  0  0  0  0
   52.2813   -4.1562   -6.9287 O   0  0  0  0  0  0  0  0  0  0  0  0
   52.1248   -5.5394   -6.9083 C   0  0  0  0  0  0  0  0  0  0  0  0
   53.2020   -6.1527   -6.2531 O   0  0  0  0  0  0  0  0  0  0  0  0
   50.8081   -5.9157   -6.3076 C   0  0  0  0  0  0  0  0  0  0  0  0
   51.0477   -6.6082   -5.1216 O   0  0  0  0  0  0  0  0  0  0  0  0
   49.9626   -4.7035   -5.9960 C   0  0  0  0  0  0  0  0  0  0  0  0
   50.5111   -4.0997   -4.8651 O   0  0  0  0  0  0  0  0  0  0  0  0
   49.9691   -3.6936   -7.1250 C   0  0  0  0  0  0  0  0  0  0  0  0
   49.6136   -2.4591   -6.5983 O   0  0  0  0  0  0  0  0  0  0  0  0
   53.7316   -6.7012   -6.8610 H   0  0  0  0  0  0  0  0  0  0  0  0
   51.0549   -6.0052   -4.3245 H   0  0  0  0  0  0  0  0  0  0  0  0
   49.8407   -4.0458   -4.1240 H   0  0  0  0  0  0  0  0  0  0  0  0
   48.8025   -2.6223   -6.0379 H   0  0  0  0  0  0  0  0  0  0  0  0
   52.1973   -2.4338   -9.5878 O   0  0  0  0  0  0  0  0  0  0  0  0
   51.6771   -2.2784   -8.3047 C   0  0  0  0  0  0  0  0  0  0  0  0
   52.4618   -3.3626   -9.7249 H   0  0  0  0  0  0  0  0  0  0  0  0
 15 16  1  0  0  0
 16  1  1  0  0  0
  1  2  1  0  0  0
  2  3  1  0  0  0
  3  4  1  0  0  0
  3  5  1  0  0  0
  5  6  1  0  0  0
  5  7  1  0  0  0
  7  8  1  0  0  0
  7  9  1  0  0  0
  9 10  1  0  0  0
  9  1  1  0  0  0
 15 17  1  0  0  0
  4 11  1  0  0  0
  6 12  1  0  0  0
  8 13  1  0  0  0
 10 14  1  0  0  0
M  END
> <minimizedAffinity>
-4.80330

> <CNNscore>
0.4516502917

> <CNNaffinity>
3.1152997017

> <CNN_VS>
1.4070260525

> <CNNaffinity_variance>
0.2235610038

$$$$
[H]OC([H])([H])[C@@]1([H])O[C@@]([H])(O[H])[C@@]([H])(O[H])[C@@]([H])(O[H])[C@@]1([H])O[H]


 17 17  0  0  0  0  0  0  0  0999 V2000
   49.4799   -3.4186   -4.7187 C   0  0  0  0  0  0  0  0  0  0  0  0
   49.1538   -4.5444   -3.9831 O   0  0  0  0  0  0  0  0  0  0  0  0
   50.2816   -4.9066   -3.2517 C   0  0  0  0  0  0  0  0  0  0  0  0
   49.9696   -5.9037   -2.3168 O   0  0  0  0  0  0  0  0  0  0  0  0
   51.3965   -5.3125   -4.1618 C   0  0  0  0  0  0  0  0  0  0  0  0
   51.6645   -6.6647   -3.9530 O   0  0  0  0  0  0  0  0  0  0  0  0
   51.0407   -5.1102   -5.6158 C   0  0  0  0  0  0  0  0  0  0  0  0
   50.1459   -6.1212   -5.9642 O   0  0  0  0  0  0  0  0  0  0  0  0
   50.3691   -3.7749   -5.8618 C   0  0  0  0  0  0  0  0  0  0  0  0
   49.6541   -3.8666   -7.0484 O   0  0  0  0  0  0  0  0  0  0  0  0
   50.0661   -5.5846   -1.4004 H   0  0  0  0  0  0  0  0  0  0  0  0
   51.1557   -7.2538   -4.5799 H   0  0  0  0  0  0  0  0  0  0  0  0
   50.5004   -6.6715   -6.7212 H   0  0  0  0  0  0  0  0  0  0  0  0
   50.2764   -4.2773   -7.7137 H   0  0  0  0  0  0  0  0  0  0  0  0
   47.3084   -2.7410   -4.1139 O   0  0  0  0  0  0  0  0  0  0  0  0
   48.2647   -2.6204   -5.1199 C   0  0  0  0  0  0  0  0  0  0  0  0
   47.5206   -3.5074   -3.5490 H   0  0  0  0  0  0  0  0  0  0  0  0
 15 16  1  0  0  0
 16  1  1  0  0  0
  1  2  1  0  0  0
  2  3  1  0  0  0
  3  4  1  0  0  0
  3  5  1  0  0  0
  5  6  1  0  0  0
  5  7  1  0  0  0
  7  8  1  0  0  0
  7  9  1  0  0  0
  9 10  1  0  0  0
  9  1  1  0  0  0
 15 17  1  0  0  0
  4 11  1  0  0  0
  6 12  1  0  0  0
  8 13  1  0  0  0
 10 14  1  0  0  0
M  END
> <minimizedAffinity>
-4.82185

> <CNNscore>
0.4390362501

> <CNNaffinity>
3.1266610622

> <CNN_VS>
1.3727174997

> <CNNaffinity_variance>
0.1386822015

$$$$
[H]OC([H])([H])[C@@]1([H])O[C@@]([H])(O[H])[C@@]([H])(O[H])[C@@]([H])(O[H])[C@@]1([H])O[H]


 17 17  0  0  0  0  0  0  0  0999 V2000
   52.6068   -3.9645   -8.1203 C   0  0  0  0  0  0  0  0  0  0  0  0
   52.8705   -4.4095   -6.8367 O   0  0  0  0  0  0  0  0  0  0  0  0
   52.2082   -5.6229   -6.6712 C   0  0  0  0  0  0  0  0  0  0  0  0
   52.6012   -6.2457   -5.4781 O   0  0  0  0  0  0  0  0  0  0  0  0
   50.7270   -5.4340   -6.7502 C   0  0  0  0  0  0  0  0  0  0  0  0
   50.1774   -5.7429   -5.5067 O   0  0  0  0  0  0  0  0  0  0  0  0
   50.3569   -4.0124   -7.1015 C   0  0  0  0  0  0  0  0  0  0  0  0
   50.5773   -3.2374   -5.9635 O   0  0  0  0  0  0  0  0  0  0  0  0
   51.2077   -3.4591   -8.2261 C   0  0  0  0  0  0  0  0  0  0  0  0
   51.1644   -2.0732   -8.1546 O   0  0  0  0  0  0  0  0  0  0  0  0
   53.0820   -7.0777   -5.6445 H   0  0  0  0  0  0  0  0  0  0  0  0
   50.0851   -4.9377   -4.9217 H   0  0  0  0  0  0  0  0  0  0  0  0
   49.7377   -2.7769   -5.6726 H   0  0  0  0  0  0  0  0  0  0  0  0
   50.2000   -1.8328   -8.0522 H   0  0  0  0  0  0  0  0  0  0  0  0
   53.3673   -2.6932   -9.9494 O   0  0  0  0  0  0  0  0  0  0  0  0
   53.6445   -2.9890   -8.6165 C   0  0  0  0  0  0  0  0  0  0  0  0
   52.7713   -3.3710  -10.3193 H   0  0  0  0  0  0  0  0  0  0  0  0
 15 16  1  0  0  0
 16  1  1  0  0  0
  1  2  1  0  0  0
  2  3  1  0  0  0
  3  4  1  0  0  0
  3  5  1  0  0  0
  5  6  1  0  0  0
  5  7  1  0  0  0
  7  8  1  0  0  0
  7  9  1  0  0  0
  9 10  1  0  0  0
  9  1  1  0  0  0
 15 17  1  0  0  0
  4 11  1  0  0  0
  6 12  1  0  0  0
  8 13  1  0  0  0
 10 14  1  0  0  0
M  END
> <minimizedAffinity>
-4.92470

> <CNNscore>
0.3973827660

> <CNNaffinity>
2.9430625439

> <CNN_VS>
1.1695222855

> <CNNaffinity_variance>
0.1026542038

$$$$
[H]OC([H])([H])[C@@]1([H])O[C@@]([H])(O[H])[C@@]([H])(O[H])[C@@]([H])(O[H])[C@@]1([H])O[H]


 17 17  0  0  0  0  0  0  0  0999 V2000
   53.2753   -5.8214   -4.8444 C   0  0  0  0  0  0  0  0  0  0  0  0
   53.1145   -6.0628   -6.1975 O   0  0  0  0  0  0  0  0  0  0  0  0
   52.8072   -4.8483   -6.8047 C   0  0  0  0  0  0  0  0  0  0  0  0
   52.8450   -4.9664   -8.2013 O   0  0  0  0  0  0  0  0  0  0  0  0
   51.4935   -4.3278   -6.3157 C   0  0  0  0  0  0  0  0  0  0  0  0
   50.6009   -4.3113   -7.3867 O   0  0  0  0  0  0  0  0  0  0  0  0
   50.9161   -5.1924   -5.2200 C   0  0  0  0  0  0  0  0  0  0  0  0
   50.4369   -6.3545   -5.8231 O   0  0  0  0  0  0  0  0  0  0  0  0
   51.9559   -5.5846   -4.1906 C   0  0  0  0  0  0  0  0  0  0  0  0
   51.5044   -6.7235   -3.5373 O   0  0  0  0  0  0  0  0  0  0  0  0
   53.5626   -4.4334   -8.5911 H   0  0  0  0  0  0  0  0  0  0  0  0
   50.0621   -5.1511   -7.4449 H   0  0  0  0  0  0  0  0  0  0  0  0
   49.4593   -6.4759   -5.6462 H   0  0  0  0  0  0  0  0  0  0  0  0
   50.5546   -6.5391   -3.2874 H   0  0  0  0  0  0  0  0  0  0  0  0
   54.3389   -6.4798   -2.8505 O   0  0  0  0  0  0  0  0  0  0  0  0
   54.1090   -6.8790   -4.1654 C   0  0  0  0  0  0  0  0  0  0  0  0
   54.1642   -5.5243   -2.7619 H   0  0  0  0  0  0  0  0  0  0  0  0
 15 16  1  0  0  0
 16  1  1  0  0  0
  1  2  1  0  0  0
  2  3  1  0  0  0
  3  4  1  0  0  0
  3  5  1  0  0  0
  5  6  1  0  0  0
  5  7  1  0  0  0
  7  8  1  0  0  0
  7  9  1  0  0  0
  9 10  1  0  0  0
  9  1  1  0  0  0
 15 17  1  0  0  0
  4 11  1  0  0  0
  6 12  1  0  0  0
  8 13  1  0  0  0
 10 14  1  0  0  0
M  END
> <minimizedAffinity>
-4.01201

> <CNNscore>
0.3936036825

> <CNNaffinity>
2.8186194897

> <CNN_VS>
1.1094189882

> <CNNaffinity_variance>
0.1530015618

$$$$
[H]OC([H])([H])[C@@]1([H])O[C@@]([H])(O[H])[C@@]([H])(O[H])[C@@]([H])(O[H])[C@@]1([H])O[H]


 17 17  0  0  0  0  0  0  0  0999 V2000
   52.5975   -3.6849   -7.9540 C   0  0  0  0  0  0  0  0  0  0  0  0
   51.3132   -3.3220   -8.3197 O   0  0  0  0  0  0  0  0  0  0  0  0
   50.7537   -2.6305   -7.2487 C   0  0  0  0  0  0  0  0  0  0  0  0
   49.5371   -2.0398   -7.6186 O   0  0  0  0  0  0  0  0  0  0  0  0
   50.6109   -3.5229   -6.0574 C   0  0  0  0  0  0  0  0  0  0  0  0
   49.2525   -3.6782   -5.7847 O   0  0  0  0  0  0  0  0  0  0  0  0
   51.2136   -4.8868   -6.2979 C   0  0  0  0  0  0  0  0  0  0  0  0
   50.3462   -5.5758   -7.1447 O   0  0  0  0  0  0  0  0  0  0  0  0
   52.5689   -4.8049   -6.9696 C   0  0  0  0  0  0  0  0  0  0  0  0
   52.8171   -6.0246   -7.5848 O   0  0  0  0  0  0  0  0  0  0  0  0
   49.5868   -1.0661   -7.6018 H   0  0  0  0  0  0  0  0  0  0  0  0
   48.8652   -4.4842   -6.2313 H   0  0  0  0  0  0  0  0  0  0  0  0
   50.0270   -6.4244   -6.7210 H   0  0  0  0  0  0  0  0  0  0  0  0
   52.6045   -6.7245   -6.9040 H   0  0  0  0  0  0  0  0  0  0  0  0
   53.4056   -2.8482  -10.0003 O   0  0  0  0  0  0  0  0  0  0  0  0
   53.4840   -3.9459   -9.1459 C   0  0  0  0  0  0  0  0  0  0  0  0
   52.6144   -2.3200   -9.7848 H   0  0  0  0  0  0  0  0  0  0  0  0
 15 16  1  0  0  0
 16  1  1  0  0  0
  1  2  1  0  0  0
  2  3  1  0  0  0
  3  4  1  0  0  0
  3  5  1  0  0  0
  5  6  1  0  0  0
  5  7  1  0  0  0
  7  8  1  0  0  0
  7  9  1  0  0  0
  9 10  1  0  0  0
  9  1  1  0  0  0
 15 17  1  0  0  0
  4 11  1  0  0  0
  6 12  1  0  0  0
  8 13  1  0  0  0
 10 14  1  0  0  0
M  END
> <minimizedAffinity>
-5.31944

> <CNNscore>
0.3783386946

> <CNNaffinity>
2.9341945648

> <CNN_VS>
1.1101193428

> <CNNaffinity_variance>
0.1240288243

$$$$
[H]OC([H])([H])[C@@]1([H])O[C@@]([H])(O[H])[C@@]([H])(O[H])[C@]([H])(O[H])[C@]1([H])O[H]


 17 17  0  0  0  0  0  0  0  0999 V2000
   52.1394   -3.4678   -7.4658 C   0  0  0  0  0  0  0  0  0  0  0  0
   52.9818   -4.5575   -7.3314 O   0  0  0  0  0  0  0  0  0  0  0  0
   54.3028   -4.2503   -7.6378 C   0  0  0  0  0  0  0  0  0  0  0  0
   55.1252   -5.3006   -7.2825 O   0  0  0  0  0  0  0  0  0  0  0  0
   54.3553   -3.9446   -9.1188 C   0  0  0  0  0  0  0  0  0  0  0  0
   53.6843   -4.9543   -9.8172 O   0  0  0  0  0  0  0  0  0  0  0  0
   53.5828   -2.6436   -9.3153 C   0  0  0  0  0  0  0  0  0  0  0  0
   54.2759   -1.6715   -8.5743 O   0  0  0  0  0  0  0  0  0  0  0  0
   52.1830   -2.8398   -8.8289 C   0  0  0  0  0  0  0  0  0  0  0  0
   51.5578   -1.5866   -8.7538 O   0  0  0  0  0  0  0  0  0  0  0  0
   55.2615   -5.2870   -6.3067 H   0  0  0  0  0  0  0  0  0  0  0  0
   53.7799   -4.8286  -10.7817 H   0  0  0  0  0  0  0  0  0  0  0  0
   53.8719   -1.5507   -7.6675 H   0  0  0  0  0  0  0  0  0  0  0  0
   52.2253   -0.8673   -8.6590 H   0  0  0  0  0  0  0  0  0  0  0  0
   49.7588   -3.1539   -7.7262 O   0  0  0  0  0  0  0  0  0  0  0  0
   50.7221   -3.9818   -7.1957 C   0  0  0  0  0  0  0  0  0  0  0  0
   49.5610   -3.3510   -8.6779 H   0  0  0  0  0  0  0  0  0  0  0  0
 15 16  1  0  0  0
 16  1  1  0  0  0
  1  2  1  0  0  0
  2  3  1  0  0  0
  3  4  1  0  0  0
  3  5  1  0  0  0
  5  6  1  0  0  0
  5  7  1  0  0  0
  7  8  1  0  0  0
  7  9  1  0  0  0
  9 10  1  0  0  0
  9  1  1  0  0  0
 15 17  1  0  0  0
  4 11  1  0  0  0
  6 12  1  0  0  0
  8 13  1  0  0  0
 10 14  1  0  0  0
M  END
> <minimizedAffinity>
-4.41302

> <CNNscore>
0.4066623747

> <CNNaffinity>
2.8102405071

> <CNN_VS>
1.1428190470

> <CNNaffinity_variance>
0.1072179824

$$$$
[H]OC([H])([H])[C@@]1([H])O[C@@]([H])(O[H])[C@@]([H])(O[H])[C@]([H])(O[H])[C@]1([H])O[H]


 17 17  0  0  0  0  0  0  0  0999 V2000
   52.3169   -4.2637   -8.4072 C   0  0  0  0  0  0  0  0  0  0  0  0
   52.1349   -5.4400   -7.7012 O   0  0  0  0  0  0  0  0  0  0  0  0
   50.8199   -5.6122   -7.2834 C   0  0  0  0  0  0  0  0  0  0  0  0
   50.6487   -6.8862   -6.7800 O   0  0  0  0  0  0  0  0  0  0  0  0
   50.5359   -4.5372   -6.2571 C   0  0  0  0  0  0  0  0  0  0  0  0
   51.5767   -4.5123   -5.3225 O   0  0  0  0  0  0  0  0  0  0  0  0
   50.5489   -3.2109   -7.0111 C   0  0  0  0  0  0  0  0  0  0  0  0
   49.5101   -3.2962   -7.9534 O   0  0  0  0  0  0  0  0  0  0  0  0
   51.8878   -3.0383   -7.6531 C   0  0  0  0  0  0  0  0  0  0  0  0
   51.8129   -1.9705   -8.5593 O   0  0  0  0  0  0  0  0  0  0  0  0
   50.5811   -7.5221   -7.5296 H   0  0  0  0  0  0  0  0  0  0  0  0
   51.3750   -3.8880   -4.5980 H   0  0  0  0  0  0  0  0  0  0  0  0
   49.8536   -3.5877   -8.8461 H   0  0  0  0  0  0  0  0  0  0  0  0
   50.8836   -1.8268   -8.8553 H   0  0  0  0  0  0  0  0  0  0  0  0
   54.3619   -2.9871   -8.2589 O   0  0  0  0  0  0  0  0  0  0  0  0
   53.8157   -4.1682   -8.7079 C   0  0  0  0  0  0  0  0  0  0  0  0
   54.6384   -3.0261   -7.3072 H   0  0  0  0  0  0  0  0  0  0  0  0
 15 16  1  0  0  0
 16  1  1  0  0  0
  1  2  1  0  0  0
  2  3  1  0  0  0
  3  4  1  0  0  0
  3  5  1  0  0  0
  5  6  1  0  0  0
  5  7  1  0  0  0
  7  8  1  0  0  0
  7  9  1  0  0  0
  9 10  1  0  0  0
  9  1  1  0  0  0
 15 17  1  0  0  0
  4 11  1  0  0  0
  6 12  1  0  0  0
  8 13  1  0  0  0
 10 14  1  0  0  0
M  END
> <minimizedAffinity>
-4.24691

> <CNNscore>
0.3959075511

> <CNNaffinity>
2.8451304436

> <CNN_VS>
1.1264085770

> <CNNaffinity_variance>
0.1316380799

$$$$
[H]OC([H])([H])[C@@]1([H])O[C@@]([H])(O[H])[C@@]([H])(O[H])[C@]([H])(O[H])[C@]1([H])O[H]


 17 17  0  0  0  0  0  0  0  0999 V2000
   51.5120   -3.5331   -6.9191 C   0  0  0  0  0  0  0  0  0  0  0  0
   51.3058   -4.6231   -6.0918 O   0  0  0  0  0  0  0  0  0  0  0  0
   52.4819   -5.3107   -5.8138 C   0  0  0  0  0  0  0  0  0  0  0  0
   52.2578   -6.2461   -4.8236 O   0  0  0  0  0  0  0  0  0  0  0  0
   52.9478   -5.9354   -7.1108 C   0  0  0  0  0  0  0  0  0  0  0  0
   51.8701   -6.5935   -7.7132 O   0  0  0  0  0  0  0  0  0  0  0  0
   53.3608   -4.7807   -8.0185 C   0  0  0  0  0  0  0  0  0  0  0  0
   54.4211   -4.1361   -7.3592 O   0  0  0  0  0  0  0  0  0  0  0  0
   52.1825   -3.8823   -8.2163 C   0  0  0  0  0  0  0  0  0  0  0  0
   52.6246   -2.6933   -8.8146 O   0  0  0  0  0  0  0  0  0  0  0  0
   52.2213   -5.7892   -3.9514 H   0  0  0  0  0  0  0  0  0  0  0  0
   52.1641   -7.0813   -8.5075 H   0  0  0  0  0  0  0  0  0  0  0  0
   54.0960   -3.3521   -6.8304 H   0  0  0  0  0  0  0  0  0  0  0  0
   53.5816   -2.5436   -8.6313 H   0  0  0  0  0  0  0  0  0  0  0  0
   50.1977   -1.6378   -7.6363 O   0  0  0  0  0  0  0  0  0  0  0  0
   50.1282   -2.9456   -7.2122 C   0  0  0  0  0  0  0  0  0  0  0  0
   50.3495   -1.5557   -8.6131 H   0  0  0  0  0  0  0  0  0  0  0  0
 15 16  1  0  0  0
 16  1  1  0  0  0
  1  2  1  0  0  0
  2  3  1  0  0  0
  3  4  1  0  0  0
  3  5  1  0  0  0
  5  6  1  0  0  0
  5  7  1  0  0  0
  7  8  1  0  0  0
  7  9  1  0  0  0
  9 10  1  0  0  0
  9  1  1  0  0  0
 15 17  1  0  0  0
  4 11  1  0  0  0
  6 12  1  0  0  0
  8 13  1  0  0  0
 10 14  1  0  0  0
M  END
> <minimizedAffinity>
-4.98756

> <CNNscore>
0.3244086802

> <CNNaffinity>
2.7933621407

> <CNN_VS>
0.9061909318

> <CNNaffinity_variance>
0.1813623309

$$$$
[H]OC([H])([H])[C@@]1([H])O[C@@]([H])(O[H])[C@@]([H])(O[H])[C@]([H])(O[H])[C@]1([H])O[H]


 17 17  0  0  0  0  0  0  0  0999 V2000
   52.4681   -3.8900   -7.5672 C   0  0  0  0  0  0  0  0  0  0  0  0
   51.1676   -3.5414   -7.2473 O   0  0  0  0  0  0  0  0  0  0  0  0
   50.7772   -4.0255   -6.0036 C   0  0  0  0  0  0  0  0  0  0  0  0
   49.5644   -3.4735   -5.6430 O   0  0  0  0  0  0  0  0  0  0  0  0
   50.7217   -5.5337   -6.1118 C   0  0  0  0  0  0  0  0  0  0  0  0
   50.0060   -5.8825   -7.2623 O   0  0  0  0  0  0  0  0  0  0  0  0
   52.1619   -6.0035   -6.2934 C   0  0  0  0  0  0  0  0  0  0  0  0
   52.8435   -5.6056   -5.1308 O   0  0  0  0  0  0  0  0  0  0  0  0
   52.7205   -5.3694   -7.5265 C   0  0  0  0  0  0  0  0  0  0  0  0
   54.1073   -5.5777   -7.5452 O   0  0  0  0  0  0  0  0  0  0  0  0
   49.7109   -2.5507   -5.3301 H   0  0  0  0  0  0  0  0  0  0  0  0
   49.8783   -6.8504   -7.3089 H   0  0  0  0  0  0  0  0  0  0  0  0
   53.3130   -4.7332   -5.2666 H   0  0  0  0  0  0  0  0  0  0  0  0
   54.4508   -5.7317   -6.6341 H   0  0  0  0  0  0  0  0  0  0  0  0
   51.8967   -2.3185   -9.3101 O   0  0  0  0  0  0  0  0  0  0  0  0
   52.7148   -3.3781   -8.9896 C   0  0  0  0  0  0  0  0  0  0  0  0
   52.2644   -1.4444   -9.0193 H   0  0  0  0  0  0  0  0  0  0  0  0
 15 16  1  0  0  0
 16  1  1  0  0  0
  1  2  1  0  0  0
  2  3  1  0  0  0
  3  4  1  0  0  0
  3  5  1  0  0  0
  5  6  1  0  0  0
  5  7  1  0  0  0
  7  8  1  0  0  0
  7  9  1  0  0  0
  9 10  1  0  0  0
  9  1  1  0  0  0
 15 17  1  0  0  0
  4 11  1  0  0  0
  6 12  1  0  0  0
  8 13  1  0  0  0
 10 14  1  0  0  0
M  END
> <minimizedAffinity>
-5.27762

> <CNNscore>
0.3113674223

> <CNNaffinity>
2.7193589211

> <CNN_VS>
0.8467198014

> <CNNaffinity_variance>
0.2432237864

$$$$
[H]OC([H])([H])[C@@]1([H])O[C@@]([H])(O[H])[C@@]([H])(O[H])[C@]([H])(O[H])[C@]1([H])O[H]


 17 17  0  0  0  0  0  0  0  0999 V2000
   58.6141   -4.8665  -10.3976 C   0  0  0  0  0  0  0  0  0  0  0  0
   59.2259   -4.9230  -11.6376 O   0  0  0  0  0  0  0  0  0  0  0  0
   58.8315   -3.8844  -12.4737 C   0  0  0  0  0  0  0  0  0  0  0  0
   59.6239   -3.8629  -13.6039 O   0  0  0  0  0  0  0  0  0  0  0  0
   57.3684   -4.1020  -12.7920 C   0  0  0  0  0  0  0  0  0  0  0  0
   57.1790   -5.4327  -13.1806 O   0  0  0  0  0  0  0  0  0  0  0  0
   56.6085   -3.8802  -11.4877 C   0  0  0  0  0  0  0  0  0  0  0  0
   56.8530   -2.5449  -11.1248 O   0  0  0  0  0  0  0  0  0  0  0  0
   57.1144   -4.8494  -10.4682 C   0  0  0  0  0  0  0  0  0  0  0  0
   56.6212   -4.4712   -9.2109 O   0  0  0  0  0  0  0  0  0  0  0  0
   60.4951   -3.4614  -13.3788 H   0  0  0  0  0  0  0  0  0  0  0  0
   56.2593   -5.5777  -13.4777 H   0  0  0  0  0  0  0  0  0  0  0  0
   57.6084   -2.4789  -10.4729 H   0  0  0  0  0  0  0  0  0  0  0  0
   56.3970   -3.5113   -9.1968 H   0  0  0  0  0  0  0  0  0  0  0  0
   59.1237   -5.9043   -8.2769 O   0  0  0  0  0  0  0  0  0  0  0  0
   59.0659   -6.1161   -9.6359 C   0  0  0  0  0  0  0  0  0  0  0  0
   58.2513   -6.0446   -7.8263 H   0  0  0  0  0  0  0  0  0  0  0  0
 15 16  1  0  0  0
 16  1  1  0  0  0
  1  2  1  0  0  0
  2  3  1  0  0  0
  3  4  1  0  0  0
  3  5  1  0  0  0
  5  6  1  0  0  0
  5  7  1  0  0  0
  7  8  1  0  0  0
  7  9  1  0  0  0
  9 10  1  0  0  0
  9  1  1  0  0  0
 15 17  1  0  0  0
  4 11  1  0  0  0
  6 12  1  0  0  0
  8 13  1  0  0  0
 10 14  1  0  0  0
M  END
> <minimizedAffinity>
-4.62133

> <CNNscore>
0.3109554052

> <CNNaffinity>
2.6745641232

> <CNN_VS>
0.8316701651

> <CNNaffinity_variance>
0.0920036957

$$$$
[H]OC([H])([H])[C@@]1([H])O[C@@]([H])(O[H])[C@@]([H])(O[H])[C@]([H])(O[H])[C@]1([H])O[H]


 17 17  0  0  0  0  0  0  0  0999 V2000
   51.9811   -4.1684   -7.8946 C   0  0  0  0  0  0  0  0  0  0  0  0
   53.1152   -4.8549   -7.4973 O   0  0  0  0  0  0  0  0  0  0  0  0
   52.8372   -6.1585   -7.1013 C   0  0  0  0  0  0  0  0  0  0  0  0
   54.0140   -6.8582   -6.9248 O   0  0  0  0  0  0  0  0  0  0  0  0
   52.0153   -6.0716   -5.8339 C   0  0  0  0  0  0  0  0  0  0  0  0
   52.6335   -5.1810   -4.9494 O   0  0  0  0  0  0  0  0  0  0  0  0
   50.6692   -5.4766   -6.2360 C   0  0  0  0  0  0  0  0  0  0  0  0
   50.1034   -6.3886   -7.1429 O   0  0  0  0  0  0  0  0  0  0  0  0
   50.9034   -4.1338   -6.8498 C   0  0  0  0  0  0  0  0  0  0  0  0
   49.7144   -3.7100   -7.4612 O   0  0  0  0  0  0  0  0  0  0  0  0
   54.3717   -7.1143   -7.8065 H   0  0  0  0  0  0  0  0  0  0  0  0
   52.1719   -5.1740   -4.0880 H   0  0  0  0  0  0  0  0  0  0  0  0
   50.2880   -6.1212   -8.0886 H   0  0  0  0  0  0  0  0  0  0  0  0
   49.1432   -4.4808   -7.6882 H   0  0  0  0  0  0  0  0  0  0  0  0
   51.6592   -2.1490   -9.1800 O   0  0  0  0  0  0  0  0  0  0  0  0
   52.4287   -2.7360   -8.2010 C   0  0  0  0  0  0  0  0  0  0  0  0
   50.8348   -1.7283   -8.8233 H   0  0  0  0  0  0  0  0  0  0  0  0
 15 16  1  0  0  0
 16  1  1  0  0  0
  1  2  1  0  0  0
  2  3  1  0  0  0
  3  4  1  0  0  0
  3  5  1  0  0  0
  5  6  1  0  0  0
  5  7  1  0  0  0
  7  8  1  0  0  0
  7  9  1  0  0  0
  9 10  1  0  0  0
  9  1  1  0  0  0
 15 17  1  0  0  0
  4 11  1  0  0  0
  6 12  1  0  0  0
  8 13  1  0  0  0
 10 14  1  0  0  0
M  END
> <minimizedAffinity>
-4.80308

> <CNNscore>
0.3062268496

> <CNNaffinity>
2.7527327538

> <CNN_VS>
0.8429606557

> <CNNaffinity_variance>
0.2276516706

$$$$
[H]OC([H])([H])[C@@]1([H])O[C@@]([H])(O[H])[C@@]([H])(O[H])[C@]([H])(O[H])[C@]1([H])O[H]


 17 17  0  0  0  0  0  0  0  0999 V2000
   50.5876   -4.4451   -4.9221 C   0  0  0  0  0  0  0  0  0  0  0  0
   51.4338   -5.5366   -4.8349 O   0  0  0  0  0  0  0  0  0  0  0  0
   52.4627   -5.4887   -5.7691 C   0  0  0  0  0  0  0  0  0  0  0  0
   53.3897   -6.4755   -5.4996 O   0  0  0  0  0  0  0  0  0  0  0  0
   51.8296   -5.6413   -7.1348 C   0  0  0  0  0  0  0  0  0  0  0  0
   50.9476   -6.7272   -7.1102 O   0  0  0  0  0  0  0  0  0  0  0  0
   51.0109   -4.3757   -7.3714 C   0  0  0  0  0  0  0  0  0  0  0  0
   51.9331   -3.3156   -7.3581 O   0  0  0  0  0  0  0  0  0  0  0  0
   49.9897   -4.2563   -6.2863 C   0  0  0  0  0  0  0  0  0  0  0  0
   49.4268   -2.9730   -6.3439 O   0  0  0  0  0  0  0  0  0  0  0  0
   53.9523   -6.1907   -4.7425 H   0  0  0  0  0  0  0  0  0  0  0  0
   50.5924   -6.9034   -8.0034 H   0  0  0  0  0  0  0  0  0  0  0  0
   51.9795   -2.8869   -6.4559 H   0  0  0  0  0  0  0  0  0  0  0  0
   50.0416   -2.3402   -6.7835 H   0  0  0  0  0  0  0  0  0  0  0  0
   48.6205   -3.6059   -3.7996 O   0  0  0  0  0  0  0  0  0  0  0  0
   49.4631   -4.6887   -3.9111 C   0  0  0  0  0  0  0  0  0  0  0  0
   47.8985   -3.6061   -4.4796 H   0  0  0  0  0  0  0  0  0  0  0  0
 15 16  1  0  0  0
 16  1  1  0  0  0
  1  2  1  0  0  0
  2  3  1  0  0  0
  3  4  1  0  0  0
  3  5  1  0  0  0
  5  6  1  0  0  0
  5  7  1  0  0  0
  7  8  1  0  0  0
  7  9  1  0  0  0
  9 10  1  0  0  0
  9  1  1  0  0  0
 15 17  1  0  0  0
  4 11  1  0  0  0
  6 12  1  0  0  0
  8 13  1  0  0  0
 10 14  1  0  0  0
M  END
> <minimizedAffinity>
-4.65303

> <CNNscore>
0.3030351698

> <CNNaffinity>
2.8343589306

> <CNN_VS>
0.8589104414

> <CNNaffinity_variance>
0.2069117576

$$$$
[H]OC([H])([H])[C@@]1([H])O[C@@]([H])(O[H])[C@@]([H])(O[H])[C@]([H])(O[H])[C@]1([H])O[H]


 17 17  0  0  0  0  0  0  0  0999 V2000
   56.7304   -4.2089   -9.4285 C   0  0  0  0  0  0  0  0  0  0  0  0
   55.5139   -3.6724   -9.8125 O   0  0  0  0  0  0  0  0  0  0  0  0
   54.8844   -2.9868   -8.7795 C   0  0  0  0  0  0  0  0  0  0  0  0
   53.7939   -2.2960   -9.2686 O   0  0  0  0  0  0  0  0  0  0  0  0
   54.5035   -4.0120   -7.7338 C   0  0  0  0  0  0  0  0  0  0  0  0
   53.8646   -5.0874   -8.3606 O   0  0  0  0  0  0  0  0  0  0  0  0
   55.8120   -4.5241   -7.1393 C   0  0  0  0  0  0  0  0  0  0  0  0
   56.4277   -3.4068   -6.5501 O   0  0  0  0  0  0  0  0  0  0  0  0
   56.6368   -5.1166   -8.2362 C   0  0  0  0  0  0  0  0  0  0  0  0
   57.9339   -5.3355   -7.7497 O   0  0  0  0  0  0  0  0  0  0  0  0
   54.1075   -1.4829   -9.7282 H   0  0  0  0  0  0  0  0  0  0  0  0
   53.5284   -5.7225   -7.6982 H   0  0  0  0  0  0  0  0  0  0  0  0
   57.0940   -2.9915   -7.1694 H   0  0  0  0  0  0  0  0  0  0  0  0
   58.1269   -4.7412   -6.9871 H   0  0  0  0  0  0  0  0  0  0  0  0
   58.5311   -5.4666  -10.4333 O   0  0  0  0  0  0  0  0  0  0  0  0
   57.2476   -5.0085  -10.6281 C   0  0  0  0  0  0  0  0  0  0  0  0
   58.5635   -6.3305   -9.9471 H   0  0  0  0  0  0  0  0  0  0  0  0
 15 16  1  0  0  0
 16  1  1  0  0  0
  1  2  1  0  0  0
  2  3  1  0  0  0
  3  4  1  0  0  0
  3  5  1  0  0  0
  5  6  1  0  0  0
  5  7  1  0  0  0
  7  8  1  0  0  0
  7  9  1  0  0  0
  9 10  1  0  0  0
  9  1  1  0  0  0
 15 17  1  0  0  0
  4 11  1  0  0  0
  6 12  1  0  0  0
  8 13  1  0  0  0
 10 14  1  0  0  0
M  END
> <minimizedAffinity>
-5.03631

> <CNNscore>
0.2982969582

> <CNNaffinity>
2.6288483143

> <CNN_VS>
0.7841774821

> <CNNaffinity_variance>
0.1273693144

$$$$
[H]OC([H])([H])[C@@]1([H])O[C@@]([H])(O[H])[C@@]([H])(O[H])[C@]([H])(O[H])[C@]1([H])O[H]


 17 17  0  0  0  0  0  0  0  0999 V2000
   51.2082   -4.0258   -7.3717 C   0  0  0  0  0  0  0  0  0  0  0  0
   52.4054   -3.5489   -7.8762 O   0  0  0  0  0  0  0  0  0  0  0  0
   53.1804   -4.5527   -8.4465 C   0  0  0  0  0  0  0  0  0  0  0  0
   54.2501   -3.9969   -9.1191 O   0  0  0  0  0  0  0  0  0  0  0  0
   53.6116   -5.4719   -7.3246 C   0  0  0  0  0  0  0  0  0  0  0  0
   54.1167   -4.7011   -6.2718 O   0  0  0  0  0  0  0  0  0  0  0  0
   52.3471   -6.1695   -6.8323 C   0  0  0  0  0  0  0  0  0  0  0  0
   51.8636   -6.9034   -7.9286 O   0  0  0  0  0  0  0  0  0  0  0  0
   51.3768   -5.1309   -6.3693 C   0  0  0  0  0  0  0  0  0  0  0  0
   50.1289   -5.7415   -6.1769 O   0  0  0  0  0  0  0  0  0  0  0  0
   53.9363   -3.6356   -9.9805 H   0  0  0  0  0  0  0  0  0  0  0  0
   54.4849   -5.2739   -5.5707 H   0  0  0  0  0  0  0  0  0  0  0  0
   51.1597   -6.3941   -8.4237 H   0  0  0  0  0  0  0  0  0  0  0  0
   50.0533   -6.5621   -6.7180 H   0  0  0  0  0  0  0  0  0  0  0  0
   50.2983   -1.7973   -7.5711 O   0  0  0  0  0  0  0  0  0  0  0  0
   50.5202   -2.8362   -6.6955 C   0  0  0  0  0  0  0  0  0  0  0  0
   49.4517   -1.8938   -8.0788 H   0  0  0  0  0  0  0  0  0  0  0  0
 15 16  1  0  0  0
 16  1  1  0  0  0
  1  2  1  0  0  0
  2  3  1  0  0  0
  3  4  1  0  0  0
  3  5  1  0  0  0
  5  6  1  0  0  0
  5  7  1  0  0  0
  7  8  1  0  0  0
  7  9  1  0  0  0
  9 10  1  0  0  0
  9  1  1  0  0  0
 15 17  1  0  0  0
  4 11  1  0  0  0
  6 12  1  0  0  0
  8 13  1  0  0  0
 10 14  1  0  0  0
M  END
> <minimizedAffinity>
-4.78254

> <CNNscore>
0.2936984003

> <CNNaffinity>
2.7647080421

> <CNN_VS>
0.8119903207

> <CNNaffinity_variance>
0.1834453791

$$$$
[H]OC([H])([H])[C@@]1([H])O[C@@]([H])(O[H])[C@@]([H])(O[H])[C@]1([H])O[H]


 14 14  0  0  0  0  0  0  0  0999 V2000
   50.2469   -3.2891   -6.1185 C   0  0  0  0  0  0  0  0  0  0  0  0
   48.9490   -2.7934   -6.0479 O   0  0  0  0  0  0  0  0  0  0  0  0
   48.7355   -2.7111   -4.6747 C   0  0  0  0  0  0  0  0  0  0  0  0
   47.3803   -2.7138   -4.3590 O   0  0  0  0  0  0  0  0  0  0  0  0
   49.4258   -3.8969   -4.0490 C   0  0  0  0  0  0  0  0  0  0  0  0
   48.5561   -4.7626   -3.4323 O   0  0  0  0  0  0  0  0  0  0  0  0
   50.1037   -4.5340   -5.2676 C   0  0  0  0  0  0  0  0  0  0  0  0
   51.2966   -5.1263   -4.9544 O   0  0  0  0  0  0  0  0  0  0  0  0
   46.8661   -2.6443   -5.2202 H   0  0  0  0  0  0  0  0  0  0  0  0
   48.9034   -5.6750   -3.3607 H   0  0  0  0  0  0  0  0  0  0  0  0
   51.9986   -4.4975   -4.7257 H   0  0  0  0  0  0  0  0  0  0  0  0
   52.0653   -3.8165   -7.4837 O   0  0  0  0  0  0  0  0  0  0  0  0
   50.6897   -3.5828   -7.5160 C   0  0  0  0  0  0  0  0  0  0  0  0
   52.4858   -3.7726   -8.3675 H   0  0  0  0  0  0  0  0  0  0  0  0
 12 13  1  0  0  0
 13  1  1  0  0  0
  1  2  1  0  0  0
  2  3  1  0  0  0
  3  4  1  0  0  0
  3  5  1  0  0  0
  5  6  1  0  0  0
  5  7  1  0  0  0
  7  8  1  0  0  0
  7  1  1  0  0  0
 12 14  1  0  0  0
  4  9  1  0  0  0
  6 10  1  0  0  0
  8 11  1  0  0  0
M  END
> <minimizedAffinity>
-4.77552

> <CNNscore>
0.6144672036

> <CNNaffinity>
3.1421902180

> <CNN_VS>
1.9307727814

> <CNNaffinity_variance>
0.2203525752

$$$$
[H]OC([H])([H])[C@@]1([H])O[C@@]([H])(O[H])[C@@]([H])(O[H])[C@]1([H])O[H]


 14 14  0  0  0  0  0  0  0  0999 V2000
   50.0032   -3.1204   -5.7510 C   0  0  0  0  0  0  0  0  0  0  0  0
   48.9910   -3.4892   -4.8709 O   0  0  0  0  0  0  0  0  0  0  0  0
   49.6950   -4.1456   -3.8650 C   0  0  0  0  0  0  0  0  0  0  0  0
   48.8809   -5.0121   -3.1421 O   0  0  0  0  0  0  0  0  0  0  0  0
   50.8134   -4.9054   -4.5328 C   0  0  0  0  0  0  0  0  0  0  0  0
   50.7018   -6.2664   -4.3870 O   0  0  0  0  0  0  0  0  0  0  0  0
   50.6504   -4.4683   -5.9933 C   0  0  0  0  0  0  0  0  0  0  0  0
   51.8456   -4.3935   -6.6549 O   0  0  0  0  0  0  0  0  0  0  0  0
   47.9328   -4.8605   -3.4406 H   0  0  0  0  0  0  0  0  0  0  0  0
   51.1624   -6.7701   -5.0887 H   0  0  0  0  0  0  0  0  0  0  0  0
   52.4120   -3.6635   -6.3605 H   0  0  0  0  0  0  0  0  0  0  0  0
   49.5161   -3.4491   -8.0100 O   0  0  0  0  0  0  0  0  0  0  0  0
   49.4915   -2.4832   -7.0030 C   0  0  0  0  0  0  0  0  0  0  0  0
   49.4374   -3.0710   -8.9105 H   0  0  0  0  0  0  0  0  0  0  0  0
 12 13  1  0  0  0
 13  1  1  0  0  0
  1  2  1  0  0  0
  2  3  1  0  0  0
  3  4  1  0  0  0
  3  5  1  0  0  0
  5  6  1  0  0  0
  5  7  1  0  0  0
  7  8  1  0  0  0
  7  1  1  0  0  0
 12 14  1  0  0  0
  4  9  1  0  0  0
  6 10  1  0  0  0
  8 11  1  0  0  0
M  END
> <minimizedAffinity>
-4.06303

> <CNNscore>
0.5981915593

> <CNNaffinity>
3.1169023514

> <CNN_VS>
1.8645046949

> <CNNaffinity_variance>
0.2223220319

$$$$
[H]OC([H])([H])[C@@]1([H])O[C@@]([H])(O[H])[C@@]([H])(O[H])[C@]1([H])O[H]


 14 14  0  0  0  0  0  0  0  0999 V2000
   50.7486   -4.1116   -6.6430 C   0  0  0  0  0  0  0  0  0  0  0  0
   50.9709   -4.3860   -5.2975 O   0  0  0  0  0  0  0  0  0  0  0  0
   49.6891   -4.3029   -4.7605 C   0  0  0  0  0  0  0  0  0  0  0  0
   49.7148   -4.0553   -3.3916 O   0  0  0  0  0  0  0  0  0  0  0  0
   48.9785   -3.1878   -5.4856 C   0  0  0  0  0  0  0  0  0  0  0  0
   48.6406   -2.1406   -4.6638 O   0  0  0  0  0  0  0  0  0  0  0  0
   50.0270   -2.7847   -6.5290 C   0  0  0  0  0  0  0  0  0  0  0  0
   49.4640   -2.3623   -7.7023 O   0  0  0  0  0  0  0  0  0  0  0  0
   50.6706   -4.1236   -3.0868 H   0  0  0  0  0  0  0  0  0  0  0  0
   48.5356   -1.2923   -5.1408 H   0  0  0  0  0  0  0  0  0  0  0  0
   49.0372   -3.0700   -8.2097 H   0  0  0  0  0  0  0  0  0  0  0  0
   52.6228   -5.2785   -7.4009 O   0  0  0  0  0  0  0  0  0  0  0  0
   52.0093   -4.0256   -7.4423 C   0  0  0  0  0  0  0  0  0  0  0  0
   53.5617   -5.2587   -7.6802 H   0  0  0  0  0  0  0  0  0  0  0  0
 12 13  1  0  0  0
 13  1  1  0  0  0
  1  2  1  0  0  0
  2  3  1  0  0  0
  3  4  1  0  0  0
  3  5  1  0  0  0
  5  6  1  0  0  0
  5  7  1  0  0  0
  7  8  1  0  0  0
  7  1  1  0  0  0
 12 14  1  0  0  0
  4  9  1  0  0  0
  6 10  1  0  0  0
  8 11  1  0  0  0
M  END
> <minimizedAffinity>
-4.72100

> <CNNscore>
0.5355975628

> <CNNaffinity>
3.0899360180

> <CNN_VS>
1.6549621820

> <CNNaffinity_variance>
0.2941032648

$$$$
[H]OC([H])([H])[C@@]1([H])O[C@@]([H])(O[H])[C@@]([H])(O[H])[C@]1([H])O[H]


 14 14  0  0  0  0  0  0  0  0999 V2000
   51.6274   -3.6354   -7.0915 C   0  0  0  0  0  0  0  0  0  0  0  0
   52.4821   -4.6601   -7.4849 O   0  0  0  0  0  0  0  0  0  0  0  0
   53.5904   -3.9603   -7.9541 C   0  0  0  0  0  0  0  0  0  0  0  0
   54.3529   -4.7240   -8.8324 O   0  0  0  0  0  0  0  0  0  0  0  0
   53.0718   -2.7233   -8.6433 C   0  0  0  0  0  0  0  0  0  0  0  0
   53.3540   -2.6973   -9.9871 O   0  0  0  0  0  0  0  0  0  0  0  0
   51.5664   -2.8317   -8.3739 C   0  0  0  0  0  0  0  0  0  0  0  0
   50.9701   -1.6088   -8.2287 O   0  0  0  0  0  0  0  0  0  0  0  0
   53.9863   -5.6602   -8.8203 H   0  0  0  0  0  0  0  0  0  0  0  0
   52.7370   -2.1380  -10.5017 H   0  0  0  0  0  0  0  0  0  0  0  0
   51.2178   -1.1460   -7.4133 H   0  0  0  0  0  0  0  0  0  0  0  0
   49.5561   -3.0194   -6.2090 O   0  0  0  0  0  0  0  0  0  0  0  0
   50.2878   -4.1256   -6.6435 C   0  0  0  0  0  0  0  0  0  0  0  0
   48.7721   -3.2606   -5.6732 H   0  0  0  0  0  0  0  0  0  0  0  0
 12 13  1  0  0  0
 13  1  1  0  0  0
  1  2  1  0  0  0
  2  3  1  0  0  0
  3  4  1  0  0  0
  3  5  1  0  0  0
  5  6  1  0  0  0
  5  7  1  0  0  0
  7  8  1  0  0  0
  7  1  1  0  0  0
 12 14  1  0  0  0
  4  9  1  0  0  0
  6 10  1  0  0  0
  8 11  1  0  0  0
M  END
> <minimizedAffinity>
-4.79563

> <CNNscore>
0.5193336606

> <CNNaffinity>
2.9247961044

> <CNN_VS>
1.5189450979

> <CNNaffinity_variance>
0.1196187735

$$$$
[H]OC([H])([H])[C@@]1([H])O[C@@]([H])(O[H])[C@@]([H])(O[H])[C@]1([H])O[H]


 14 14  0  0  0  0  0  0  0  0999 V2000
   51.7510   -3.7961   -7.6803 C   0  0  0  0  0  0  0  0  0  0  0  0
   52.4279   -4.4893   -6.6821 O   0  0  0  0  0  0  0  0  0  0  0  0
   51.3961   -5.1647   -6.0359 C   0  0  0  0  0  0  0  0  0  0  0  0
   51.7434   -5.5224   -4.7369 O   0  0  0  0  0  0  0  0  0  0  0  0
   50.2023   -4.2434   -6.0287 C   0  0  0  0  0  0  0  0  0  0  0  0
   49.8179   -3.8700   -4.7642 O   0  0  0  0  0  0  0  0  0  0  0  0
   50.7274   -3.0561   -6.8442 C   0  0  0  0  0  0  0  0  0  0  0  0
   49.7468   -2.4523   -7.5829 O   0  0  0  0  0  0  0  0  0  0  0  0
   52.7201   -5.3173   -4.6144 H   0  0  0  0  0  0  0  0  0  0  0  0
   49.3266   -3.0236   -4.7430 H   0  0  0  0  0  0  0  0  0  0  0  0
   49.4260   -2.9902   -8.3233 H   0  0  0  0  0  0  0  0  0  0  0  0
   51.8308   -2.1885   -9.3709 O   0  0  0  0  0  0  0  0  0  0  0  0
   52.6359   -2.8825   -8.4663 C   0  0  0  0  0  0  0  0  0  0  0  0
   52.3392   -1.7564  -10.0884 H   0  0  0  0  0  0  0  0  0  0  0  0
 12 13  1  0  0  0
 13  1  1  0  0  0
  1  2  1  0  0  0
  2  3  1  0  0  0
  3  4  1  0  0  0
  3  5  1  0  0  0
  5  6  1  0  0  0
  5  7  1  0  0  0
  7  8  1  0  0  0
  7  1  1  0  0  0
 12 14  1  0  0  0
  4  9  1  0  0  0
  6 10  1  0  0  0
  8 11  1  0  0  0
M  END
> <minimizedAffinity>
-4.88234

> <CNNscore>
0.5144200325

> <CNNaffinity>
2.9984068871

> <CNN_VS>
1.5424405336

> <CNNaffinity_variance>
0.1336780936

$$$$
[H]OC([H])([H])[C@@]1([H])O[C@@]([H])(O[H])[C@@]([H])(O[H])[C@]1([H])O[H]


 14 14  0  0  0  0  0  0  0  0999 V2000
   49.6872   -4.2003   -5.1309 C   0  0  0  0  0  0  0  0  0  0  0  0
   49.5030   -2.8804   -5.5299 O   0  0  0  0  0  0  0  0  0  0  0  0
   49.7004   -2.9546   -6.9060 C   0  0  0  0  0  0  0  0  0  0  0  0
   50.0489   -1.7213   -7.4476 O   0  0  0  0  0  0  0  0  0  0  0  0
   50.7965   -3.9633   -7.1408 C   0  0  0  0  0  0  0  0  0  0  0  0
   51.9206   -3.4147   -7.7078 O   0  0  0  0  0  0  0  0  0  0  0  0
   51.0583   -4.4673   -5.7168 C   0  0  0  0  0  0  0  0  0  0  0  0
   51.4224   -5.7858   -5.6856 O   0  0  0  0  0  0  0  0  0  0  0  0
   49.9489   -1.0306   -6.7238 H   0  0  0  0  0  0  0  0  0  0  0  0
   52.7350   -3.9266   -7.5264 H   0  0  0  0  0  0  0  0  0  0  0  0
   50.7042   -6.3966   -5.9125 H   0  0  0  0  0  0  0  0  0  0  0  0
   48.3001   -4.5176   -3.2805 O   0  0  0  0  0  0  0  0  0  0  0  0
   49.6396   -4.3790   -3.6472 C   0  0  0  0  0  0  0  0  0  0  0  0
   48.1470   -4.3921   -2.3210 H   0  0  0  0  0  0  0  0  0  0  0  0
 12 13  1  0  0  0
 13  1  1  0  0  0
  1  2  1  0  0  0
  2  3  1  0  0  0
  3  4  1  0  0  0
  3  5  1  0  0  0
  5  6  1  0  0  0
  5  7  1  0  0  0
  7  8  1  0  0  0
  7  1  1  0  0  0
 12 14  1  0  0  0
  4  9  1  0  0  0
  6 10  1  0  0  0
  8 11  1  0  0  0
M  END
> <minimizedAffinity>
-4.76014

> <CNNscore>
0.5076168776

> <CNNaffinity>
3.0062534809

> <CNN_VS>
1.5260250568

> <CNNaffinity_variance>
0.2514920831

$$$$
[H]OC([H])([H])[C@@]1([H])O[C@@]([H])(O[H])[C@@]([H])(O[H])[C@]1([H])O[H]


 14 14  0  0  0  0  0  0  0  0999 V2000
   51.1504   -4.9158   -5.2742 C   0  0  0  0  0  0  0  0  0  0  0  0
   49.7806   -4.7672   -5.0823 O   0  0  0  0  0  0  0  0  0  0  0  0
   49.7006   -4.4659   -3.7254 C   0  0  0  0  0  0  0  0  0  0  0  0
   48.4433   -4.7531   -3.2032 O   0  0  0  0  0  0  0  0  0  0  0  0
   50.7606   -5.2818   -3.0291 C   0  0  0  0  0  0  0  0  0  0  0  0
   50.2420   -6.1984   -2.1476 O   0  0  0  0  0  0  0  0  0  0  0  0
   51.4566   -5.9564   -4.2169 C   0  0  0  0  0  0  0  0  0  0  0  0
   52.7946   -6.1454   -4.0027 O   0  0  0  0  0  0  0  0  0  0  0  0
   47.8413   -4.9944   -3.9715 H   0  0  0  0  0  0  0  0  0  0  0  0
   50.8386   -6.9565   -1.9817 H   0  0  0  0  0  0  0  0  0  0  0  0
   53.3106   -5.3243   -3.9955 H   0  0  0  0  0  0  0  0  0  0  0  0
   52.8652   -5.1087   -6.8460 O   0  0  0  0  0  0  0  0  0  0  0  0
   51.5061   -5.3627   -6.6559 C   0  0  0  0  0  0  0  0  0  0  0  0
   53.1355   -5.1348   -7.7874 H   0  0  0  0  0  0  0  0  0  0  0  0
 12 13  1  0  0  0
 13  1  1  0  0  0
  1  2  1  0  0  0
  2  3  1  0  0  0
  3  4  1  0  0  0
  3  5  1  0  0  0
  5  6  1  0  0  0
  5  7  1  0  0  0
  7  8  1  0  0  0
  7  1  1  0  0  0
 12 14  1  0  0  0
  4  9  1  0  0  0
  6 10  1  0  0  0
  8 11  1  0  0  0
M  END
> <minimizedAffinity>
-4.08206

> <CNNscore>
0.5008571148

> <CNNaffinity>
3.0671401024

> <CNN_VS>
1.5361989737

> <CNNaffinity_variance>
0.1604463756

$$$$
[H]OC([H])([H])[C@@]1([H])O[C@@]([H])(O[H])[C@@]([H])(O[H])[C@]1([H])O[H]


 14 14  0  0  0  0  0  0  0  0999 V2000
   50.6817   -3.3377   -6.4261 C   0  0  0  0  0  0  0  0  0  0  0  0
   50.1279   -4.3983   -5.7164 O   0  0  0  0  0  0  0  0  0  0  0  0
   51.2565   -5.0883   -5.2824 C   0  0  0  0  0  0  0  0  0  0  0  0
   50.9698   -6.4166   -4.9834 O   0  0  0  0  0  0  0  0  0  0  0  0
   52.2775   -5.0046   -6.3891 C   0  0  0  0  0  0  0  0  0  0  0  0
   52.5883   -6.2287   -6.9285 O   0  0  0  0  0  0  0  0  0  0  0  0
   51.5623   -4.0971   -7.3968 C   0  0  0  0  0  0  0  0  0  0  0  0
   52.4296   -3.2995   -8.0921 O   0  0  0  0  0  0  0  0  0  0  0  0
   49.9720   -6.5317   -5.0304 H   0  0  0  0  0  0  0  0  0  0  0  0
   52.9294   -6.1730   -7.8444 H   0  0  0  0  0  0  0  0  0  0  0  0
   52.8395   -2.6039   -7.5549 H   0  0  0  0  0  0  0  0  0  0  0  0
   50.3346   -1.4688   -7.7808 O   0  0  0  0  0  0  0  0  0  0  0  0
   49.6581   -2.4866   -7.1068 C   0  0  0  0  0  0  0  0  0  0  0  0
   49.7518   -0.7275   -8.0469 H   0  0  0  0  0  0  0  0  0  0  0  0
 12 13  1  0  0  0
 13  1  1  0  0  0
  1  2  1  0  0  0
  2  3  1  0  0  0
  3  4  1  0  0  0
  3  5  1  0  0  0
  5  6  1  0  0  0
  5  7  1  0  0  0
  7  8  1  0  0  0
  7  1  1  0  0  0
 12 14  1  0  0  0
  4  9  1  0  0  0
  6 10  1  0  0  0
  8 11  1  0  0  0
M  END
> <minimizedAffinity>
-4.44507

> <CNNscore>
0.4945239127

> <CNNaffinity>
2.9701075554

> <CNN_VS>
1.4687892199

> <CNNaffinity_variance>
0.1743249297

$$$$
[H]OC([H])([H])[C@@]1([H])O[C@@]([H])(O[H])[C@@]([H])(O[H])[C@]1([H])O[H]


 14 14  0  0  0  0  0  0  0  0999 V2000
   49.9952   -4.0727   -4.4151 C   0  0  0  0  0  0  0  0  0  0  0  0
   50.5375   -4.9059   -5.3882 O   0  0  0  0  0  0  0  0  0  0  0  0
   50.9879   -3.9970   -6.3417 C   0  0  0  0  0  0  0  0  0  0  0  0
   51.1170   -4.5829   -7.5971 O   0  0  0  0  0  0  0  0  0  0  0  0
   49.9864   -2.8704   -6.3851 C   0  0  0  0  0  0  0  0  0  0  0  0
   49.3463   -2.7654   -7.5956 O   0  0  0  0  0  0  0  0  0  0  0  0
   49.0258   -3.2718   -5.2597 C   0  0  0  0  0  0  0  0  0  0  0  0
   48.4958   -2.1898   -4.6115 O   0  0  0  0  0  0  0  0  0  0  0  0
   50.9741   -5.5723   -7.4885 H   0  0  0  0  0  0  0  0  0  0  0  0
   48.4737   -2.3259   -7.5354 H   0  0  0  0  0  0  0  0  0  0  0  0
   49.1373   -1.7032   -4.0711 H   0  0  0  0  0  0  0  0  0  0  0  0
   47.9707   -4.4895   -3.3305 O   0  0  0  0  0  0  0  0  0  0  0  0
   49.3264   -4.8201   -3.3062 C   0  0  0  0  0  0  0  0  0  0  0  0
   47.4997   -4.7281   -2.5052 H   0  0  0  0  0  0  0  0  0  0  0  0
 12 13  1  0  0  0
 13  1  1  0  0  0
  1  2  1  0  0  0
  2  3  1  0  0  0
  3  4  1  0  0  0
  3  5  1  0  0  0
  5  6  1  0  0  0
  5  7  1  0  0  0
  7  8  1  0  0  0
  7  1  1  0  0  0
 12 14  1  0  0  0
  4  9  1  0  0  0
  6 10  1  0  0  0
  8 11  1  0  0  0
M  END
> <minimizedAffinity>
-4.58397

> <CNNscore>
0.4806120396

> <CNNaffinity>
2.9972980022

> <CNN_VS>
1.4405374527

> <CNNaffinity_variance>
0.3558992743

$$$$
[H]c1nc2c(c([H])c1-c1c([H])c([H])c(S(=O)(=O)N([H])[H])c([H])c1[H])c(-c1c([H])c([H])c([H])c([H])c1[H])c([H])n2[H]


 28 31  0  0  0  0  0  0  0  0999 V2000
   54.2956   -3.9453   -8.7485 C   0  0  0  0  0  0  0  0  0  0  0  0
   53.7591   -3.0513   -9.6574 C   0  0  0  0  0  0  0  0  0  0  0  0
   52.5238   -2.5370   -9.5126 N   0  0  0  0  0  0  0  0  0  0  0  0
   51.7596   -2.8819   -8.4615 C   0  0  0  0  0  0  0  0  0  0  0  0
   50.5268   -2.5682   -8.0318 N   0  0  0  0  0  0  0  0  0  0  0  0
   50.2447   -3.2145   -6.8936 C   0  0  0  0  0  0  0  0  0  0  0  0
   51.3446   -4.0047   -6.5381 C   0  0  0  0  0  0  0  0  0  0  0  0
   52.2691   -3.7703   -7.5411 C   0  0  0  0  0  0  0  0  0  0  0  0
   53.5428   -4.3243   -7.6563 C   0  0  0  0  0  0  0  0  0  0  0  0
   49.8951   -1.9052   -8.5389 H   0  0  0  0  0  0  0  0  0  0  0  0
   58.2499   -5.5096   -9.3397 C   0  0  0  0  0  0  0  0  0  0  0  0
   57.6640   -5.4657   -8.0913 C   0  0  0  0  0  0  0  0  0  0  0  0
   56.3936   -4.9649   -7.8893 C   0  0  0  0  0  0  0  0  0  0  0  0
   55.6473   -4.4803   -8.9473 C   0  0  0  0  0  0  0  0  0  0  0  0
   56.2344   -4.5248  -10.1951 C   0  0  0  0  0  0  0  0  0  0  0  0
   57.5026   -5.0247  -10.3966 C   0  0  0  0  0  0  0  0  0  0  0  0
   59.7115   -7.8519   -9.8809 N   0  0  0  0  0  0  0  0  0  0  0  0
   59.8641   -6.1463   -9.5947 S   0  0  0  0  0  0  0  0  0  0  0  0
   60.5012   -5.5576  -10.8153 O   0  0  0  0  0  0  0  0  0  0  0  0
   60.6828   -5.8521   -8.3939 O   0  0  0  0  0  0  0  0  0  0  0  0
   58.9693   -7.9387  -10.6367 H   0  0  0  0  0  0  0  0  0  0  0  0
   60.5991   -8.1754  -10.3515 H   0  0  0  0  0  0  0  0  0  0  0  0
   51.4714   -4.8637   -5.3717 C   0  0  0  0  0  0  0  0  0  0  0  0
   50.4363   -4.8876   -4.4646 C   0  0  0  0  0  0  0  0  0  0  0  0
   50.5550   -5.7075   -3.3381 C   0  0  0  0  0  0  0  0  0  0  0  0
   51.6763   -6.4876   -3.1152 C   0  0  0  0  0  0  0  0  0  0  0  0
   52.7103   -6.4456   -4.0488 C   0  0  0  0  0  0  0  0  0  0  0  0
   52.5893   -5.6366   -5.1571 C   0  0  0  0  0  0  0  0  0  0  0  0
 17 18  1  0  0  0
 18 19  2  0  0  0
 18 20  2  0  0  0
 18 11  1  0  0  0
 11 12  2  0  0  0
 12 13  1  0  0  0
 13 14  2  0  0  0
 14 15  1  0  0  0
 15 16  2  0  0  0
 14  1  1  0  0  0
  1  2  2  0  0  0
  2  3  1  0  0  0
  3  4  2  0  0  0
  4  5  1  0  0  0
  5  6  1  0  0  0
  6  7  2  0  0  0
  7 23  1  0  0  0
 23 24  2  0  0  0
 24 25  1  0  0  0
 25 26  2  0  0  0
 26 27  1  0  0  0
 27 28  2  0  0  0
  7  8  1  0  0  0
  8  9  2  0  0  0
 16 11  1  0  0  0
  9  1  1  0  0  0
  8  4  1  0  0  0
 28 23  1  0  0  0
 17 21  1  0  0  0
 17 22  1  0  0  0
  5 10  1  0  0  0
M  END
> <minimizedAffinity>
-11.01814

> <CNNscore>
0.9259036779

> <CNNaffinity>
7.0119476318

> <CNN_VS>
6.4923882484

> <CNNaffinity_variance>
0.0888694376

$$$$
[H]c1nc2c(c([H])c1-c1c([H])c([H])c(S(=O)(=O)N([H])[H])c([H])c1[H])c(-c1c([H])c([H])c([H])c([H])c1[H])c([H])n2[H]


 28 31  0  0  0  0  0  0  0  0999 V2000
   54.7693   -4.0390   -8.9892 C   0  0  0  0  0  0  0  0  0  0  0  0
   54.2798   -3.1601   -9.9384 C   0  0  0  0  0  0  0  0  0  0  0  0
   53.0479   -2.6251   -9.8516 N   0  0  0  0  0  0  0  0  0  0  0  0
   52.2406   -2.9335   -8.8216 C   0  0  0  0  0  0  0  0  0  0  0  0
   50.9978   -2.5921   -8.4453 N   0  0  0  0  0  0  0  0  0  0  0  0
   50.6645   -3.2065   -7.3032 C   0  0  0  0  0  0  0  0  0  0  0  0
   51.7388   -4.0032   -6.8886 C   0  0  0  0  0  0  0  0  0  0  0  0
   52.7028   -3.8062   -7.8620 C   0  0  0  0  0  0  0  0  0  0  0  0
   53.9714   -4.3807   -7.9168 C   0  0  0  0  0  0  0  0  0  0  0  0
   50.3950   -1.9329   -8.9912 H   0  0  0  0  0  0  0  0  0  0  0  0
   58.7192   -5.6719   -9.3962 C   0  0  0  0  0  0  0  0  0  0  0  0
   58.0502   -5.6778   -8.1894 C   0  0  0  0  0  0  0  0  0  0  0  0
   56.7803   -5.1557   -8.0467 C   0  0  0  0  0  0  0  0  0  0  0  0
   56.1193   -4.5976   -9.1251 C   0  0  0  0  0  0  0  0  0  0  0  0
   56.7893   -4.5923  -10.3312 C   0  0  0  0  0  0  0  0  0  0  0  0
   58.0569   -5.1136  -10.4734 C   0  0  0  0  0  0  0  0  0  0  0  0
   60.1808   -8.0645   -9.6291 N   0  0  0  0  0  0  0  0  0  0  0  0
   60.3326   -6.3359   -9.5759 S   0  0  0  0  0  0  0  0  0  0  0  0
   60.9592   -5.9161  -10.8694 O   0  0  0  0  0  0  0  0  0  0  0  0
   61.1598   -5.8823   -8.4318 O   0  0  0  0  0  0  0  0  0  0  0  0
   59.4330   -8.2527  -10.3606 H   0  0  0  0  0  0  0  0  0  0  0  0
   61.0654   -8.4477  -10.0589 H   0  0  0  0  0  0  0  0  0  0  0  0
   51.8099   -4.8351   -5.6982 C   0  0  0  0  0  0  0  0  0  0  0  0
   53.0151   -5.4215   -5.3842 C   0  0  0  0  0  0  0  0  0  0  0  0
   53.0882   -6.2272   -4.2437 C   0  0  0  0  0  0  0  0  0  0  0  0
   51.9895   -6.4472   -3.4311 C   0  0  0  0  0  0  0  0  0  0  0  0
   50.7810   -5.8419   -3.7707 C   0  0  0  0  0  0  0  0  0  0  0  0
   50.7133   -5.0490   -4.8950 C   0  0  0  0  0  0  0  0  0  0  0  0
 17 18  1  0  0  0
 18 19  2  0  0  0
 18 20  2  0  0  0
 18 11  1  0  0  0
 11 12  2  0  0  0
 12 13  1  0  0  0
 13 14  2  0  0  0
 14 15  1  0  0  0
 15 16  2  0  0  0
 14  1  1  0  0  0
  1  2  2  0  0  0
  2  3  1  0  0  0
  3  4  2  0  0  0
  4  5  1  0  0  0
  5  6  1  0  0  0
  6  7  2  0  0  0
  7 23  1  0  0  0
 23 24  2  0  0  0
 24 25  1  0  0  0
 25 26  2  0  0  0
 26 27  1  0  0  0
 27 28  2  0  0  0
  7  8  1  0  0  0
  8  9  2  0  0  0
 16 11  1  0  0  0
  9  1  1  0  0  0
  8  4  1  0  0  0
 28 23  1  0  0  0
 17 21  1  0  0  0
 17 22  1  0  0  0
  5 10  1  0  0  0
M  END
> <minimizedAffinity>
-10.57861

> <CNNscore>
0.9216193557

> <CNNaffinity>
6.9068017006

> <CNN_VS>
6.3654422760

> <CNNaffinity_variance>
0.0833853036

$$$$
[H]c1nc2c(c([H])c1-c1c([H])c([H])c(S(=O)(=O)N([H])[H])c([H])c1[H])c(-c1c([H])c([H])c([H])c([H])c1[H])c([H])n2[H]


 28 31  0  0  0  0  0  0  0  0999 V2000
   54.9939   -4.1235   -9.6756 C   0  0  0  0  0  0  0  0  0  0  0  0
   53.7706   -3.6237  -10.0840 C   0  0  0  0  0  0  0  0  0  0  0  0
   52.6769   -3.6784   -9.3015 N   0  0  0  0  0  0  0  0  0  0  0  0
   52.7405   -4.2301   -8.0771 C   0  0  0  0  0  0  0  0  0  0  0  0
   51.8698   -4.4410   -7.0769 N   0  0  0  0  0  0  0  0  0  0  0  0
   52.4714   -5.0501   -6.0475 C   0  0  0  0  0  0  0  0  0  0  0  0
   53.8174   -5.2606   -6.3709 C   0  0  0  0  0  0  0  0  0  0  0  0
   53.9463   -4.7356   -7.6451 C   0  0  0  0  0  0  0  0  0  0  0  0
   55.1002   -4.6976   -8.4256 C   0  0  0  0  0  0  0  0  0  0  0  0
   50.8634   -4.1568   -7.1245 H   0  0  0  0  0  0  0  0  0  0  0  0
   58.3993   -3.8813  -12.2790 C   0  0  0  0  0  0  0  0  0  0  0  0
   58.4955   -4.3921  -11.0009 C   0  0  0  0  0  0  0  0  0  0  0  0
   57.4076   -4.4748  -10.1551 C   0  0  0  0  0  0  0  0  0  0  0  0
   56.1596   -4.0418  -10.5629 C   0  0  0  0  0  0  0  0  0  0  0  0
   56.0648   -3.5312  -11.8412 C   0  0  0  0  0  0  0  0  0  0  0  0
   57.1508   -3.4488  -12.6853 C   0  0  0  0  0  0  0  0  0  0  0  0
   60.5838   -2.2725  -13.0240 N   0  0  0  0  0  0  0  0  0  0  0  0
   59.7824   -3.7771  -13.3524 S   0  0  0  0  0  0  0  0  0  0  0  0
   60.7743   -4.8649  -13.0785 O   0  0  0  0  0  0  0  0  0  0  0  0
   59.3008   -3.8600  -14.7524 O   0  0  0  0  0  0  0  0  0  0  0  0
   60.7140   -2.2546  -11.9693 H   0  0  0  0  0  0  0  0  0  0  0  0
   61.5654   -2.3460  -13.4047 H   0  0  0  0  0  0  0  0  0  0  0  0
   54.8355   -5.8834   -5.5404 C   0  0  0  0  0  0  0  0  0  0  0  0
   54.9074   -7.2579   -5.5187 C   0  0  0  0  0  0  0  0  0  0  0  0
   55.8808   -7.8627   -4.7174 C   0  0  0  0  0  0  0  0  0  0  0  0
   56.7648   -7.1206   -3.9535 C   0  0  0  0  0  0  0  0  0  0  0  0
   56.6713   -5.7306   -3.9931 C   0  0  0  0  0  0  0  0  0  0  0  0
   55.7110   -5.1389   -4.7837 C   0  0  0  0  0  0  0  0  0  0  0  0
 17 18  1  0  0  0
 18 19  2  0  0  0
 18 20  2  0  0  0
 18 11  1  0  0  0
 11 12  2  0  0  0
 12 13  1  0  0  0
 13 14  2  0  0  0
 14 15  1  0  0  0
 15 16  2  0  0  0
 14  1  1  0  0  0
  1  2  2  0  0  0
  2  3  1  0  0  0
  3  4  2  0  0  0
  4  5  1  0  0  0
  5  6  1  0  0  0
  6  7  2  0  0  0
  7 23  1  0  0  0
 23 24  2  0  0  0
 24 25  1  0  0  0
 25 26  2  0  0  0
 26 27  1  0  0  0
 27 28  2  0  0  0
  7  8  1  0  0  0
  8  9  2  0  0  0
 16 11  1  0  0  0
  9  1  1  0  0  0
  8  4  1  0  0  0
 28 23  1  0  0  0
 17 21  1  0  0  0
 17 22  1  0  0  0
  5 10  1  0  0  0
M  END
> <minimizedAffinity>
-7.59238

> <CNNscore>
0.5574637055

> <CNNaffinity>
6.2071671486

> <CNN_VS>
3.4602704048

> <CNNaffinity_variance>
0.1481952667

$$$$
[H]c1nc2c(c([H])c1-c1c([H])c([H])c(S(=O)(=O)N([H])[H])c([H])c1[H])c(-c1c([H])c([H])c([H])c([H])c1[H])c([H])n2[H]


 28 31  0  0  0  0  0  0  0  0999 V2000
   55.7019   -4.6407   -8.2860 C   0  0  0  0  0  0  0  0  0  0  0  0
   56.4858   -5.1541   -7.2686 C   0  0  0  0  0  0  0  0  0  0  0  0
   57.7533   -5.5574   -7.4748 N   0  0  0  0  0  0  0  0  0  0  0  0
   58.3065   -5.4722   -8.6972 C   0  0  0  0  0  0  0  0  0  0  0  0
   59.5010   -5.7768   -9.2295 N   0  0  0  0  0  0  0  0  0  0  0  0
   59.5241   -5.4849  -10.5361 C   0  0  0  0  0  0  0  0  0  0  0  0
   58.2805   -4.9563  -10.9031 C   0  0  0  0  0  0  0  0  0  0  0  0
   57.5483   -4.9647   -9.7285 C   0  0  0  0  0  0  0  0  0  0  0  0
   56.2332   -4.5371   -9.5549 C   0  0  0  0  0  0  0  0  0  0  0  0
   60.2880   -6.1858   -8.6735 H   0  0  0  0  0  0  0  0  0  0  0  0
   51.6711   -3.3977   -7.4855 C   0  0  0  0  0  0  0  0  0  0  0  0
   52.4549   -2.7627   -8.4269 C   0  0  0  0  0  0  0  0  0  0  0  0
   53.7519   -3.1535   -8.6926 C   0  0  0  0  0  0  0  0  0  0  0  0
   54.3248   -4.2134   -8.0145 C   0  0  0  0  0  0  0  0  0  0  0  0
   53.5398   -4.8475   -7.0734 C   0  0  0  0  0  0  0  0  0  0  0  0
   52.2452   -4.4572   -6.8083 C   0  0  0  0  0  0  0  0  0  0  0  0
   49.8527   -1.2613   -7.6967 N   0  0  0  0  0  0  0  0  0  0  0  0
   50.0232   -2.9000   -7.1493 S   0  0  0  0  0  0  0  0  0  0  0  0
   49.0335   -3.7189   -7.9188 O   0  0  0  0  0  0  0  0  0  0  0  0
   49.7784   -3.0311   -5.6927 O   0  0  0  0  0  0  0  0  0  0  0  0
   50.2256   -1.2635   -8.6919 H   0  0  0  0  0  0  0  0  0  0  0  0
   48.8207   -1.0694   -7.8073 H   0  0  0  0  0  0  0  0  0  0  0  0
   57.8724   -4.4998  -12.2219 C   0  0  0  0  0  0  0  0  0  0  0  0
   58.7598   -3.7427  -12.9527 C   0  0  0  0  0  0  0  0  0  0  0  0
   58.3708   -3.2961  -14.2194 C   0  0  0  0  0  0  0  0  0  0  0  0
   57.1279   -3.5937  -14.7509 C   0  0  0  0  0  0  0  0  0  0  0  0
   56.2478   -4.3620  -13.9908 C   0  0  0  0  0  0  0  0  0  0  0  0
   56.6350   -4.7999  -12.7436 C   0  0  0  0  0  0  0  0  0  0  0  0
 17 18  1  0  0  0
 18 19  2  0  0  0
 18 20  2  0  0  0
 18 11  1  0  0  0
 11 12  2  0  0  0
 12 13  1  0  0  0
 13 14  2  0  0  0
 14 15  1  0  0  0
 15 16  2  0  0  0
 14  1  1  0  0  0
  1  2  2  0  0  0
  2  3  1  0  0  0
  3  4  2  0  0  0
  4  5  1  0  0  0
  5  6  1  0  0  0
  6  7  2  0  0  0
  7 23  1  0  0  0
 23 24  2  0  0  0
 24 25  1  0  0  0
 25 26  2  0  0  0
 26 27  1  0  0  0
 27 28  2  0  0  0
  7  8  1  0  0  0
  8  9  2  0  0  0
 16 11  1  0  0  0
  9  1  1  0  0  0
  8  4  1  0  0  0
 28 23  1  0  0  0
 17 21  1  0  0  0
 17 22  1  0  0  0
  5 10  1  0  0  0
M  END
> <minimizedAffinity>
-9.10833

> <CNNscore>
0.5178276896

> <CNNaffinity>
6.3148756027

> <CNN_VS>
3.2700173855

> <CNNaffinity_variance>
0.0665617660

$$$$
[H]c1nc2c(c([H])c1-c1c([H])c([H])c(S(=O)(=O)N([H])[H])c([H])c1[H])c(-c1c([H])c([H])c([H])c([H])c1[H])c([H])n2[H]


 28 31  0  0  0  0  0  0  0  0999 V2000
   60.2968   -8.1873   -4.2248 C   0  0  0  0  0  0  0  0  0  0  0  0
   59.0603   -7.5702   -4.2848 C   0  0  0  0  0  0  0  0  0  0  0  0
   58.0717   -7.8610   -3.4190 N   0  0  0  0  0  0  0  0  0  0  0  0
   58.2585   -8.7760   -2.4518 C   0  0  0  0  0  0  0  0  0  0  0  0
   57.5097   -9.2866   -1.4611 N   0  0  0  0  0  0  0  0  0  0  0  0
   58.2021  -10.1994   -0.7681 C   0  0  0  0  0  0  0  0  0  0  0  0
   59.4840  -10.3094   -1.3207 C   0  0  0  0  0  0  0  0  0  0  0  0
   59.4802   -9.4058   -2.3691 C   0  0  0  0  0  0  0  0  0  0  0  0
   60.5279   -9.1322   -3.2465 C   0  0  0  0  0  0  0  0  0  0  0  0
   56.5219   -8.9916   -1.2798 H   0  0  0  0  0  0  0  0  0  0  0  0
   63.3690   -7.1615   -7.0430 C   0  0  0  0  0  0  0  0  0  0  0  0
   62.2144   -7.8105   -7.4295 C   0  0  0  0  0  0  0  0  0  0  0  0
   61.2201   -8.1453   -6.5324 C   0  0  0  0  0  0  0  0  0  0  0  0
   61.3451   -7.8382   -5.1902 C   0  0  0  0  0  0  0  0  0  0  0  0
   62.5001   -7.1892   -4.8051 C   0  0  0  0  0  0  0  0  0  0  0  0
   63.4925   -6.8551   -5.7008 C   0  0  0  0  0  0  0  0  0  0  0  0
   65.7502   -8.0629   -8.2401 N   0  0  0  0  0  0  0  0  0  0  0  0
   64.6313   -6.7366   -8.1842 S   0  0  0  0  0  0  0  0  0  0  0  0
   64.0872   -6.5702   -9.5693 O   0  0  0  0  0  0  0  0  0  0  0  0
   65.2754   -5.4807   -7.7297 O   0  0  0  0  0  0  0  0  0  0  0  0
   65.1477   -8.9247   -8.3947 H   0  0  0  0  0  0  0  0  0  0  0  0
   66.3058   -7.9719   -9.1328 H   0  0  0  0  0  0  0  0  0  0  0  0
   60.5634  -11.1759   -0.8752 C   0  0  0  0  0  0  0  0  0  0  0  0
   61.7909  -10.6083   -0.6190 C   0  0  0  0  0  0  0  0  0  0  0  0
   62.8343  -11.4375   -0.1958 C   0  0  0  0  0  0  0  0  0  0  0  0
   62.6646  -12.8011   -0.0299 C   0  0  0  0  0  0  0  0  0  0  0  0
   61.4120  -13.3511   -0.2958 C   0  0  0  0  0  0  0  0  0  0  0  0
   60.3869  -12.5308   -0.7125 C   0  0  0  0  0  0  0  0  0  0  0  0
 17 18  1  0  0  0
 18 19  2  0  0  0
 18 20  2  0  0  0
 18 11  1  0  0  0
 11 12  2  0  0  0
 12 13  1  0  0  0
 13 14  2  0  0  0
 14 15  1  0  0  0
 15 16  2  0  0  0
 14  1  1  0  0  0
  1  2  2  0  0  0
  2  3  1  0  0  0
  3  4  2  0  0  0
  4  5  1  0  0  0
  5  6  1  0  0  0
  6  7  2  0  0  0
  7 23  1  0  0  0
 23 24  2  0  0  0
 24 25  1  0  0  0
 25 26  2  0  0  0
 26 27  1  0  0  0
 27 28  2  0  0  0
  7  8  1  0  0  0
  8  9  2  0  0  0
 16 11  1  0  0  0
  9  1  1  0  0  0
  8  4  1  0  0  0
 28 23  1  0  0  0
 17 21  1  0  0  0
 17 22  1  0  0  0
  5 10  1  0  0  0
M  END
> <minimizedAffinity>
-2.70428

> <CNNscore>
0.4997250736

> <CNNaffinity>
5.1261429787

> <CNN_VS>
2.5616621971

> <CNNaffinity_variance>
0.6914055347

$$$$
[H]c1nc2c(c([H])c1-c1c([H])c([H])c(S(=O)(=O)N([H])[H])c([H])c1[H])c(-c1c([H])c([H])c([H])c([H])c1[H])c([H])n2[H]


 28 31  0  0  0  0  0  0  0  0999 V2000
   62.5190   -9.1245   -8.4309 C   0  0  0  0  0  0  0  0  0  0  0  0
   61.6114  -10.1248   -8.7290 C   0  0  0  0  0  0  0  0  0  0  0  0
   61.0907  -10.9256   -7.7808 N   0  0  0  0  0  0  0  0  0  0  0  0
   61.4426  -10.7755   -6.4918 C   0  0  0  0  0  0  0  0  0  0  0  0
   61.1258  -11.3832   -5.3372 N   0  0  0  0  0  0  0  0  0  0  0  0
   61.7831  -10.8242   -4.3134 C   0  0  0  0  0  0  0  0  0  0  0  0
   62.5844   -9.7858   -4.8038 C   0  0  0  0  0  0  0  0  0  0  0  0
   62.3446   -9.7871   -6.1669 C   0  0  0  0  0  0  0  0  0  0  0  0
   62.9055   -8.9385   -7.1197 C   0  0  0  0  0  0  0  0  0  0  0  0
   60.4531  -12.1830   -5.2769 H   0  0  0  0  0  0  0  0  0  0  0  0
   64.1120   -6.6428  -11.5513 C   0  0  0  0  0  0  0  0  0  0  0  0
   62.7790   -6.6009  -11.1975 C   0  0  0  0  0  0  0  0  0  0  0  0
   62.2558   -7.3941  -10.1961 C   0  0  0  0  0  0  0  0  0  0  0  0
   63.0604   -8.2753   -9.4979 C   0  0  0  0  0  0  0  0  0  0  0  0
   64.3931   -8.3160   -9.8527 C   0  0  0  0  0  0  0  0  0  0  0  0
   64.9153   -7.5243  -10.8523 C   0  0  0  0  0  0  0  0  0  0  0  0
   65.7543   -4.4171  -12.0659 N   0  0  0  0  0  0  0  0  0  0  0  0
   64.7753   -5.6342  -12.8237 S   0  0  0  0  0  0  0  0  0  0  0  0
   65.6776   -6.4138  -13.7294 O   0  0  0  0  0  0  0  0  0  0  0  0
   63.6526   -5.0482  -13.5951 O   0  0  0  0  0  0  0  0  0  0  0  0
   66.3959   -4.9506  -11.4076 H   0  0  0  0  0  0  0  0  0  0  0  0
   66.4036   -4.0285  -12.8017 H   0  0  0  0  0  0  0  0  0  0  0  0
   63.4572   -8.9105   -4.0382 C   0  0  0  0  0  0  0  0  0  0  0  0
   64.6760   -8.5699   -4.5798 C   0  0  0  0  0  0  0  0  0  0  0  0
   65.5221   -7.7330   -3.8456 C   0  0  0  0  0  0  0  0  0  0  0  0
   65.1676   -7.2436   -2.6004 C   0  0  0  0  0  0  0  0  0  0  0  0
   63.9281   -7.6032   -2.0743 C   0  0  0  0  0  0  0  0  0  0  0  0
   63.0977   -8.4279   -2.8008 C   0  0  0  0  0  0  0  0  0  0  0  0
 17 18  1  0  0  0
 18 19  2  0  0  0
 18 20  2  0  0  0
 18 11  1  0  0  0
 11 12  2  0  0  0
 12 13  1  0  0  0
 13 14  2  0  0  0
 14 15  1  0  0  0
 15 16  2  0  0  0
 14  1  1  0  0  0
  1  2  2  0  0  0
  2  3  1  0  0  0
  3  4  2  0  0  0
  4  5  1  0  0  0
  5  6  1  0  0  0
  6  7  2  0  0  0
  7 23  1  0  0  0
 23 24  2  0  0  0
 24 25  1  0  0  0
 25 26  2  0  0  0
 26 27  1  0  0  0
 27 28  2  0  0  0
  7  8  1  0  0  0
  8  9  2  0  0  0
 16 11  1  0  0  0
  9  1  1  0  0  0
  8  4  1  0  0  0
 28 23  1  0  0  0
 17 21  1  0  0  0
 17 22  1  0  0  0
  5 10  1  0  0  0
M  END
> <minimizedAffinity>
-2.93655

> <CNNscore>
0.4943862855

> <CNNaffinity>
4.7397379875

> <CNN_VS>
2.3432614803

> <CNNaffinity_variance>
0.4052376747

$$$$
[H]c1nc2c(c([H])c1-c1c([H])c([H])c(S(=O)(=O)N([H])[H])c([H])c1[H])c(-c1c([H])c([H])c([H])c([H])c1[H])c([H])n2[H]


 28 31  0  0  0  0  0  0  0  0999 V2000
   54.8596   -4.7477   -7.7769 C   0  0  0  0  0  0  0  0  0  0  0  0
   53.9132   -4.1239   -8.5696 C   0  0  0  0  0  0  0  0  0  0  0  0
   54.1722   -3.7534   -9.8373 N   0  0  0  0  0  0  0  0  0  0  0  0
   55.3799   -3.9822  -10.3822 C   0  0  0  0  0  0  0  0  0  0  0  0
   55.9510   -3.7471  -11.5745 N   0  0  0  0  0  0  0  0  0  0  0  0
   57.2151   -4.1883  -11.5878 C   0  0  0  0  0  0  0  0  0  0  0  0
   57.5110   -4.7497  -10.3397 C   0  0  0  0  0  0  0  0  0  0  0  0
   56.3410   -4.6018   -9.6152 C   0  0  0  0  0  0  0  0  0  0  0  0
   56.1112   -5.0001   -8.2995 C   0  0  0  0  0  0  0  0  0  0  0  0
   55.4508   -3.2803  -12.3668 H   0  0  0  0  0  0  0  0  0  0  0  0
   53.8923   -5.8788   -3.7497 C   0  0  0  0  0  0  0  0  0  0  0  0
   55.1697   -5.5048   -4.1136 C   0  0  0  0  0  0  0  0  0  0  0  0
   55.4922   -5.1394   -5.4050 C   0  0  0  0  0  0  0  0  0  0  0  0
   54.5322   -5.1340   -6.3998 C   0  0  0  0  0  0  0  0  0  0  0  0
   53.2553   -5.5082   -6.0346 C   0  0  0  0  0  0  0  0  0  0  0  0
   52.9335   -5.8730   -4.7454 C   0  0  0  0  0  0  0  0  0  0  0  0
   52.3119   -5.2042   -1.5221 N   0  0  0  0  0  0  0  0  0  0  0  0
   53.4842   -6.3427   -2.1083 S   0  0  0  0  0  0  0  0  0  0  0  0
   52.8374   -7.6925   -2.0629 O   0  0  0  0  0  0  0  0  0  0  0  0
   54.7236   -6.3380   -1.2943 O   0  0  0  0  0  0  0  0  0  0  0  0
   51.5640   -5.1665   -2.2762 H   0  0  0  0  0  0  0  0  0  0  0  0
   51.8251   -5.6465   -0.6966 H   0  0  0  0  0  0  0  0  0  0  0  0
   58.7657   -5.3537   -9.9211 C   0  0  0  0  0  0  0  0  0  0  0  0
   58.9375   -5.6395   -8.5856 C   0  0  0  0  0  0  0  0  0  0  0  0
   60.1443   -6.2152   -8.1763 C   0  0  0  0  0  0  0  0  0  0  0  0
   61.1598   -6.5019   -9.0721 C   0  0  0  0  0  0  0  0  0  0  0  0
   60.9608   -6.2031  -10.4187 C   0  0  0  0  0  0  0  0  0  0  0  0
   59.7706   -5.6360  -10.8177 C   0  0  0  0  0  0  0  0  0  0  0  0
 17 18  1  0  0  0
 18 19  2  0  0  0
 18 20  2  0  0  0
 18 11  1  0  0  0
 11 12  2  0  0  0
 12 13  1  0  0  0
 13 14  2  0  0  0
 14 15  1  0  0  0
 15 16  2  0  0  0
 14  1  1  0  0  0
  1  2  2  0  0  0
  2  3  1  0  0  0
  3  4  2  0  0  0
  4  5  1  0  0  0
  5  6  1  0  0  0
  6  7  2  0  0  0
  7 23  1  0  0  0
 23 24  2  0  0  0
 24 25  1  0  0  0
 25 26  2  0  0  0
 26 27  1  0  0  0
 27 28  2  0  0  0
  7  8  1  0  0  0
  8  9  2  0  0  0
 16 11  1  0  0  0
  9  1  1  0  0  0
  8  4  1  0  0  0
 28 23  1  0  0  0
 17 21  1  0  0  0
 17 22  1  0  0  0
  5 10  1  0  0  0
M  END
> <minimizedAffinity>
-7.81477

> <CNNscore>
0.3930075467

> <CNNaffinity>
6.0611896515

> <CNN_VS>
2.3820931911

> <CNNaffinity_variance>
0.2990180850

$$$$
[H]c1nc2c(c([H])c1-c1c([H])c([H])c(S(=O)(=O)N([H])[H])c([H])c1[H])c(-c1c([H])c([H])c([H])c([H])c1[H])c([H])n2[H]


 28 31  0  0  0  0  0  0  0  0999 V2000
   57.3618   -4.6763  -10.3890 C   0  0  0  0  0  0  0  0  0  0  0  0
   58.4126   -5.3049   -9.7458 C   0  0  0  0  0  0  0  0  0  0  0  0
   58.3433   -5.6747   -8.4535 N   0  0  0  0  0  0  0  0  0  0  0  0
   57.2311   -5.4407   -7.7351 C   0  0  0  0  0  0  0  0  0  0  0  0
   56.8442   -5.6696   -6.4699 N   0  0  0  0  0  0  0  0  0  0  0  0
   55.5990   -5.2206   -6.2682 C   0  0  0  0  0  0  0  0  0  0  0  0
   55.1223   -4.6600   -7.4595 C   0  0  0  0  0  0  0  0  0  0  0  0
   56.1695   -4.8162   -8.3508 C   0  0  0  0  0  0  0  0  0  0  0  0
   56.2030   -4.4183   -9.6861 C   0  0  0  0  0  0  0  0  0  0  0  0
   57.4551   -6.1376   -5.7602 H   0  0  0  0  0  0  0  0  0  0  0  0
   57.7242   -3.5473  -14.5155 C   0  0  0  0  0  0  0  0  0  0  0  0
   56.5058   -3.8694  -13.9536 C   0  0  0  0  0  0  0  0  0  0  0  0
   56.3773   -4.2338  -12.6283 C   0  0  0  0  0  0  0  0  0  0  0  0
   57.4824   -4.2911  -11.7997 C   0  0  0  0  0  0  0  0  0  0  0  0
   58.7001   -3.9687  -12.3628 C   0  0  0  0  0  0  0  0  0  0  0  0
   58.8282   -3.6050  -13.6857 C   0  0  0  0  0  0  0  0  0  0  0  0
   58.9451   -1.7103  -16.2620 N   0  0  0  0  0  0  0  0  0  0  0  0
   57.8857   -3.0843  -16.1994 S   0  0  0  0  0  0  0  0  0  0  0  0
   58.5319   -4.1665  -17.0078 O   0  0  0  0  0  0  0  0  0  0  0  0
   56.5380   -2.7760  -16.7355 O   0  0  0  0  0  0  0  0  0  0  0  0
   59.7974   -1.9940  -15.6939 H   0  0  0  0  0  0  0  0  0  0  0  0
   59.3067   -1.6332  -17.2505 H   0  0  0  0  0  0  0  0  0  0  0  0
   53.8173   -4.0618   -7.6906 C   0  0  0  0  0  0  0  0  0  0  0  0
   53.7297   -3.0118   -8.5763 C   0  0  0  0  0  0  0  0  0  0  0  0
   52.4782   -2.4287   -8.7984 C   0  0  0  0  0  0  0  0  0  0  0  0
   51.3372   -2.8771   -8.1559 C   0  0  0  0  0  0  0  0  0  0  0  0
   51.4528   -3.9418   -7.2640 C   0  0  0  0  0  0  0  0  0  0  0  0
   52.6874   -4.5132   -7.0481 C   0  0  0  0  0  0  0  0  0  0  0  0
 17 18  1  0  0  0
 18 19  2  0  0  0
 18 20  2  0  0  0
 18 11  1  0  0  0
 11 12  2  0  0  0
 12 13  1  0  0  0
 13 14  2  0  0  0
 14 15  1  0  0  0
 15 16  2  0  0  0
 14  1  1  0  0  0
  1  2  2  0  0  0
  2  3  1  0  0  0
  3  4  2  0  0  0
  4  5  1  0  0  0
  5  6  1  0  0  0
  6  7  2  0  0  0
  7 23  1  0  0  0
 23 24  2  0  0  0
 24 25  1  0  0  0
 25 26  2  0  0  0
 26 27  1  0  0  0
 27 28  2  0  0  0
  7  8  1  0  0  0
  8  9  2  0  0  0
 16 11  1  0  0  0
  9  1  1  0  0  0
  8  4  1  0  0  0
 28 23  1  0  0  0
 17 21  1  0  0  0
 17 22  1  0  0  0
  5 10  1  0  0  0
M  END
> <minimizedAffinity>
-10.13806

> <CNNscore>
0.3743462563

> <CNNaffinity>
5.8373818398

> <CNN_VS>
2.1852021217

> <CNNaffinity_variance>
0.1635457575

$$$$
[H]c1nc2c(c([H])c1-c1c([H])c([H])c(S(=O)(=O)N([H])[H])c([H])c1[H])c(-c1c([H])c([H])c([H])c([H])c1[H])c([H])n2[H]


 28 31  0  0  0  0  0  0  0  0999 V2000
   51.9052   -4.9368   -5.7094 C   0  0  0  0  0  0  0  0  0  0  0  0
   50.7423   -4.2343   -5.9690 C   0  0  0  0  0  0  0  0  0  0  0  0
   50.6237   -3.4110   -7.0271 N   0  0  0  0  0  0  0  0  0  0  0  0
   51.6496   -3.2429   -7.8797 C   0  0  0  0  0  0  0  0  0  0  0  0
   51.8597   -2.5218   -8.9927 N   0  0  0  0  0  0  0  0  0  0  0  0
   53.0974   -2.7256   -9.4610 C   0  0  0  0  0  0  0  0  0  0  0  0
   53.7555   -3.6311   -8.6197 C   0  0  0  0  0  0  0  0  0  0  0  0
   52.8194   -3.9303   -7.6450 C   0  0  0  0  0  0  0  0  0  0  0  0
   52.9808   -4.7913   -6.5609 C   0  0  0  0  0  0  0  0  0  0  0  0
   51.1352   -1.8943   -9.4135 H   0  0  0  0  0  0  0  0  0  0  0  0
   52.1411   -7.5283   -2.2945 C   0  0  0  0  0  0  0  0  0  0  0  0
   53.2072   -7.3583   -3.1539 C   0  0  0  0  0  0  0  0  0  0  0  0
   53.1428   -6.5279   -4.2547 C   0  0  0  0  0  0  0  0  0  0  0  0
   51.9888   -5.8234   -4.5433 C   0  0  0  0  0  0  0  0  0  0  0  0
   50.9236   -5.9943   -3.6832 C   0  0  0  0  0  0  0  0  0  0  0  0
   50.9881   -6.8232   -2.5843 C   0  0  0  0  0  0  0  0  0  0  0  0
   52.2446  -10.2189   -1.4787 N   0  0  0  0  0  0  0  0  0  0  0  0
   52.2247   -8.5836   -0.8961 S   0  0  0  0  0  0  0  0  0  0  0  0
   53.4951   -8.3814   -0.1297 O   0  0  0  0  0  0  0  0  0  0  0  0
   51.0521   -8.3130   -0.0298 O   0  0  0  0  0  0  0  0  0  0  0  0
   53.0076  -10.2382   -2.2183 H   0  0  0  0  0  0  0  0  0  0  0  0
   52.6207  -10.8276   -0.7029 H   0  0  0  0  0  0  0  0  0  0  0  0
   55.1115   -4.1368   -8.7593 C   0  0  0  0  0  0  0  0  0  0  0  0
   55.6675   -4.1717  -10.0180 C   0  0  0  0  0  0  0  0  0  0  0  0
   56.9693   -4.6624  -10.1592 C   0  0  0  0  0  0  0  0  0  0  0  0
   57.7050   -5.1091   -9.0753 C   0  0  0  0  0  0  0  0  0  0  0  0
   57.1193   -5.0631   -7.8114 C   0  0  0  0  0  0  0  0  0  0  0  0
   55.8368   -4.5790   -7.6768 C   0  0  0  0  0  0  0  0  0  0  0  0
 17 18  1  0  0  0
 18 19  2  0  0  0
 18 20  2  0  0  0
 18 11  1  0  0  0
 11 12  2  0  0  0
 12 13  1  0  0  0
 13 14  2  0  0  0
 14 15  1  0  0  0
 15 16  2  0  0  0
 14  1  1  0  0  0
  1  2  2  0  0  0
  2  3  1  0  0  0
  3  4  2  0  0  0
  4  5  1  0  0  0
  5  6  1  0  0  0
  6  7  2  0  0  0
  7 23  1  0  0  0
 23 24  2  0  0  0
 24 25  1  0  0  0
 25 26  2  0  0  0
 26 27  1  0  0  0
 27 28  2  0  0  0
  7  8  1  0  0  0
  8  9  2  0  0  0
 16 11  1  0  0  0
  9  1  1  0  0  0
  8  4  1  0  0  0
 28 23  1  0  0  0
 17 21  1  0  0  0
 17 22  1  0  0  0
  5 10  1  0  0  0
M  END
> <minimizedAffinity>
-10.36037

> <CNNscore>
0.3730776906

> <CNNaffinity>
6.4769668579

> <CNN_VS>
2.4164118767

> <CNNaffinity_variance>
0.1172142401

$$$$
[H]OC([H])([H])[C@@]1([H])O[C@@]([H])(O[H])[C@@]([H])(O[H])[C@@]1([H])O[H]


 14 14  0  0  0  0  0  0  0  0999 V2000
   56.7680   -3.6672  -14.1837 C   0  0  0  0  0  0  0  0  0  0  0  0
   58.0505   -3.5604  -14.7184 O   0  0  0  0  0  0  0  0  0  0  0  0
   57.7676   -3.2317  -16.0443 C   0  0  0  0  0  0  0  0  0  0  0  0
   58.9150   -3.2280  -16.8327 O   0  0  0  0  0  0  0  0  0  0  0  0
   56.7868   -4.2887  -16.4458 C   0  0  0  0  0  0  0  0  0  0  0  0
   57.4306   -5.4188  -16.9558 O   0  0  0  0  0  0  0  0  0  0  0  0
   56.0812   -4.5869  -15.1365 C   0  0  0  0  0  0  0  0  0  0  0  0
   56.1585   -5.9245  -14.7857 O   0  0  0  0  0  0  0  0  0  0  0  0
   58.6318   -3.1619  -17.7626 H   0  0  0  0  0  0  0  0  0  0  0  0
   56.8388   -5.8117  -17.6673 H   0  0  0  0  0  0  0  0  0  0  0  0
   55.2676   -6.2861  -14.5578 H   0  0  0  0  0  0  0  0  0  0  0  0
   57.9797   -4.8745  -12.5829 O   0  0  0  0  0  0  0  0  0  0  0  0
   56.7928   -4.1828  -12.7649 C   0  0  0  0  0  0  0  0  0  0  0  0
   58.7241   -4.2754  -12.8991 H   0  0  0  0  0  0  0  0  0  0  0  0
 12 13  1  0  0  0
 13  1  1  0  0  0
  1  2  1  0  0  0
  2  3  1  0  0  0
  3  4  1  0  0  0
  3  5  1  0  0  0
  5  6  1  0  0  0
  5  7  1  0  0  0
  7  8  1  0  0  0
  7  1  1  0  0  0
 12 14  1  0  0  0
  4  9  1  0  0  0
  6 10  1  0  0  0
  8 11  1  0  0  0
M  END
> <minimizedAffinity>
-4.42982

> <CNNscore>
0.5893855095

> <CNNaffinity>
2.8073325157

> <CNN_VS>
1.6546010971

> <CNNaffinity_variance>
0.0235714130

$$$$
[H]OC([H])([H])[C@@]1([H])O[C@@]([H])(O[H])[C@@]([H])(O[H])[C@@]1([H])O[H]


 14 14  0  0  0  0  0  0  0  0999 V2000
   50.3128   -3.5486   -6.0233 C   0  0  0  0  0  0  0  0  0  0  0  0
   48.9745   -3.1632   -5.9722 O   0  0  0  0  0  0  0  0  0  0  0  0
   48.8566   -2.7600   -4.6420 C   0  0  0  0  0  0  0  0  0  0  0  0
   47.5369   -2.4744   -4.3028 O   0  0  0  0  0  0  0  0  0  0  0  0
   49.4125   -3.9291   -3.8907 C   0  0  0  0  0  0  0  0  0  0  0  0
   48.4219   -4.8707   -3.6009 O   0  0  0  0  0  0  0  0  0  0  0  0
   50.4409   -4.4764   -4.8622 C   0  0  0  0  0  0  0  0  0  0  0  0
   50.2186   -5.8071   -5.1752 O   0  0  0  0  0  0  0  0  0  0  0  0
   47.4992   -2.3676   -3.3351 H   0  0  0  0  0  0  0  0  0  0  0  0
   48.6493   -5.2898   -2.7157 H   0  0  0  0  0  0  0  0  0  0  0  0
   51.0424   -6.3419   -5.0671 H   0  0  0  0  0  0  0  0  0  0  0  0
   51.9801   -4.6119   -7.2795 O   0  0  0  0  0  0  0  0  0  0  0  0
   50.6619   -4.1898   -7.3449 C   0  0  0  0  0  0  0  0  0  0  0  0
   52.0785   -5.1488   -6.4338 H   0  0  0  0  0  0  0  0  0  0  0  0
 12 13  1  0  0  0
 13  1  1  0  0  0
  1  2  1  0  0  0
  2  3  1  0  0  0
  3  4  1  0  0  0
  3  5  1  0  0  0
  5  6  1  0  0  0
  5  7  1  0  0  0
  7  8  1  0  0  0
  7  1  1  0  0  0
 12 14  1  0  0  0
  4  9  1  0  0  0
  6 10  1  0  0  0
  8 11  1  0  0  0
M  END
> <minimizedAffinity>
-4.27564

> <CNNscore>
0.5833827853

> <CNNaffinity>
3.0643916130

> <CNN_VS>
1.7877132893

> <CNNaffinity_variance>
0.2002009153

$$$$
[H]OC([H])([H])[C@@]1([H])O[C@@]([H])(O[H])[C@@]([H])(O[H])[C@@]1([H])O[H]


 14 14  0  0  0  0  0  0  0  0999 V2000
   49.8452   -3.3970   -5.0990 C   0  0  0  0  0  0  0  0  0  0  0  0
   49.6923   -4.6673   -4.5465 O   0  0  0  0  0  0  0  0  0  0  0  0
   50.9908   -5.1670   -4.6460 C   0  0  0  0  0  0  0  0  0  0  0  0
   51.0561   -6.5123   -4.2937 O   0  0  0  0  0  0  0  0  0  0  0  0
   51.3308   -4.9228   -6.0831 C   0  0  0  0  0  0  0  0  0  0  0  0
   50.9497   -5.9976   -6.8902 O   0  0  0  0  0  0  0  0  0  0  0  0
   50.5291   -3.6735   -6.3956 C   0  0  0  0  0  0  0  0  0  0  0  0
   49.6651   -3.8517   -7.4632 O   0  0  0  0  0  0  0  0  0  0  0  0
   51.9390   -6.8389   -4.5448 H   0  0  0  0  0  0  0  0  0  0  0  0
   51.6201   -6.0715   -7.6359 H   0  0  0  0  0  0  0  0  0  0  0  0
   49.7632   -3.1264   -8.1270 H   0  0  0  0  0  0  0  0  0  0  0  0
   47.7682   -2.9329   -4.1196 O   0  0  0  0  0  0  0  0  0  0  0  0
   48.5201   -2.6912   -5.2583 C   0  0  0  0  0  0  0  0  0  0  0  0
   48.3488   -2.7114   -3.3278 H   0  0  0  0  0  0  0  0  0  0  0  0
 12 13  1  0  0  0
 13  1  1  0  0  0
  1  2  1  0  0  0
  2  3  1  0  0  0
  3  4  1  0  0  0
  3  5  1  0  0  0
  5  6  1  0  0  0
  5  7  1  0  0  0
  7  8  1  0  0  0
  7  1  1  0  0  0
 12 14  1  0  0  0
  4  9  1  0  0  0
  6 10  1  0  0  0
  8 11  1  0  0  0
M  END
> <minimizedAffinity>
-3.89943

> <CNNscore>
0.5367109179

> <CNNaffinity>
3.0624058247

> <CNN_VS>
1.6436266899

> <CNNaffinity_variance>
0.1102265269

$$$$
[H]OC([H])([H])[C@@]1([H])O[C@@]([H])(O[H])[C@@]([H])(O[H])[C@@]1([H])O[H]


 14 14  0  0  0  0  0  0  0  0999 V2000
   51.4595   -3.4423   -7.2256 C   0  0  0  0  0  0  0  0  0  0  0  0
   51.8378   -4.7709   -7.4089 O   0  0  0  0  0  0  0  0  0  0  0  0
   53.2270   -4.6738   -7.3257 C   0  0  0  0  0  0  0  0  0  0  0  0
   53.8500   -5.8777   -7.6427 O   0  0  0  0  0  0  0  0  0  0  0  0
   53.5415   -3.5799   -8.2978 C   0  0  0  0  0  0  0  0  0  0  0  0
   53.7420   -4.0809   -9.5865 O   0  0  0  0  0  0  0  0  0  0  0  0
   52.2996   -2.7125   -8.2191 C   0  0  0  0  0  0  0  0  0  0  0  0
   51.6943   -2.5406   -9.4529 O   0  0  0  0  0  0  0  0  0  0  0  0
   54.8037   -5.7000   -7.7321 H   0  0  0  0  0  0  0  0  0  0  0  0
   54.4351   -3.5054  -10.0328 H   0  0  0  0  0  0  0  0  0  0  0  0
   51.5166   -1.5856   -9.6336 H   0  0  0  0  0  0  0  0  0  0  0  0
   49.7351   -1.8861   -7.5310 O   0  0  0  0  0  0  0  0  0  0  0  0
   49.9771   -3.2471   -7.4351 C   0  0  0  0  0  0  0  0  0  0  0  0
   50.3783   -1.5173   -8.2117 H   0  0  0  0  0  0  0  0  0  0  0  0
 12 13  1  0  0  0
 13  1  1  0  0  0
  1  2  1  0  0  0
  2  3  1  0  0  0
  3  4  1  0  0  0
  3  5  1  0  0  0
  5  6  1  0  0  0
  5  7  1  0  0  0
  7  8  1  0  0  0
  7  1  1  0  0  0
 12 14  1  0  0  0
  4  9  1  0  0  0
  6 10  1  0  0  0
  8 11  1  0  0  0
M  END
> <minimizedAffinity>
-4.73590

> <CNNscore>
0.5319435596

> <CNNaffinity>
3.0045139790

> <CNN_VS>
1.5982319117

> <CNNaffinity_variance>
0.0347415395

$$$$
[H]OC([H])([H])[C@@]1([H])O[C@@]([H])(O[H])[C@@]([H])(O[H])[C@@]1([H])O[H]


 14 14  0  0  0  0  0  0  0  0999 V2000
   51.4844   -4.3398   -6.6340 C   0  0  0  0  0  0  0  0  0  0  0  0
   52.2035   -4.9001   -7.6881 O   0  0  0  0  0  0  0  0  0  0  0  0
   53.0578   -3.8500   -8.0251 C   0  0  0  0  0  0  0  0  0  0  0  0
   53.7818   -4.1229   -9.1825 O   0  0  0  0  0  0  0  0  0  0  0  0
   52.1181   -2.6957   -8.1829 C   0  0  0  0  0  0  0  0  0  0  0  0
   51.6332   -2.6039   -9.4900 O   0  0  0  0  0  0  0  0  0  0  0  0
   51.0170   -3.0403   -7.1981 C   0  0  0  0  0  0  0  0  0  0  0  0
   49.7698   -3.1005   -7.7974 O   0  0  0  0  0  0  0  0  0  0  0  0
   54.2226   -3.2976   -9.4543 H   0  0  0  0  0  0  0  0  0  0  0  0
   51.5019   -1.6292   -9.6986 H   0  0  0  0  0  0  0  0  0  0  0  0
   49.1076   -2.5626   -7.2989 H   0  0  0  0  0  0  0  0  0  0  0  0
   50.0646   -6.1083   -7.2214 O   0  0  0  0  0  0  0  0  0  0  0  0
   50.3577   -5.2381   -6.1835 C   0  0  0  0  0  0  0  0  0  0  0  0
   50.9333   -6.5228   -7.5157 H   0  0  0  0  0  0  0  0  0  0  0  0
 12 13  1  0  0  0
 13  1  1  0  0  0
  1  2  1  0  0  0
  2  3  1  0  0  0
  3  4  1  0  0  0
  3  5  1  0  0  0
  5  6  1  0  0  0
  5  7  1  0  0  0
  7  8  1  0  0  0
  7  1  1  0  0  0
 12 14  1  0  0  0
  4  9  1  0  0  0
  6 10  1  0  0  0
  8 11  1  0  0  0
M  END
> <minimizedAffinity>
-4.75314

> <CNNscore>
0.5167613029

> <CNNaffinity>
2.9641184807

> <CNN_VS>
1.5317417383

> <CNNaffinity_variance>
0.0518789887

$$$$
[H]OC([H])([H])[C@@]1([H])O[C@@]([H])(O[H])[C@@]([H])(O[H])[C@@]1([H])O[H]


 14 14  0  0  0  0  0  0  0  0999 V2000
   52.2724   -3.5620   -7.4463 C   0  0  0  0  0  0  0  0  0  0  0  0
   53.0176   -4.6249   -7.9535 O   0  0  0  0  0  0  0  0  0  0  0  0
   54.2717   -4.0327   -8.1034 C   0  0  0  0  0  0  0  0  0  0  0  0
   55.1664   -4.8743   -8.7588 O   0  0  0  0  0  0  0  0  0  0  0  0
   53.9615   -2.7916   -8.8805 C   0  0  0  0  0  0  0  0  0  0  0  0
   54.0045   -3.0243  -10.2574 O   0  0  0  0  0  0  0  0  0  0  0  0
   52.5579   -2.4600   -8.4103 C   0  0  0  0  0  0  0  0  0  0  0  0
   51.6545   -2.3764   -9.4567 O   0  0  0  0  0  0  0  0  0  0  0  0
   55.9555   -4.3478   -8.9809 H   0  0  0  0  0  0  0  0  0  0  0  0
   54.3380   -2.1844  -10.6982 H   0  0  0  0  0  0  0  0  0  0  0  0
   51.1304   -1.5401   -9.4102 H   0  0  0  0  0  0  0  0  0  0  0  0
   50.1301   -2.7669   -6.9298 O   0  0  0  0  0  0  0  0  0  0  0  0
   50.8054   -3.9040   -7.3435 C   0  0  0  0  0  0  0  0  0  0  0  0
   50.4162   -2.0150   -7.5347 H   0  0  0  0  0  0  0  0  0  0  0  0
 12 13  1  0  0  0
 13  1  1  0  0  0
  1  2  1  0  0  0
  2  3  1  0  0  0
  3  4  1  0  0  0
  3  5  1  0  0  0
  5  6  1  0  0  0
  5  7  1  0  0  0
  7  8  1  0  0  0
  7  1  1  0  0  0
 12 14  1  0  0  0
  4  9  1  0  0  0
  6 10  1  0  0  0
  8 11  1  0  0  0
M  END
> <minimizedAffinity>
-4.56420

> <CNNscore>
0.5134161711

> <CNNaffinity>
2.8960835934

> <CNN_VS>
1.4868961573

> <CNNaffinity_variance>
0.0543855354

$$$$
[H]OC([H])([H])[C@@]1([H])O[C@@]([H])(O[H])[C@@]([H])(O[H])[C@@]1([H])O[H]


 14 14  0  0  0  0  0  0  0  0999 V2000
   56.9058   -3.6988  -15.6555 C   0  0  0  0  0  0  0  0  0  0  0  0
   58.0945   -3.5168  -14.9512 O   0  0  0  0  0  0  0  0  0  0  0  0
   58.7984   -2.6776  -15.8150 C   0  0  0  0  0  0  0  0  0  0  0  0
   60.1094   -2.4797  -15.3903 O   0  0  0  0  0  0  0  0  0  0  0  0
   58.7114   -3.4000  -17.1231 C   0  0  0  0  0  0  0  0  0  0  0  0
   59.7661   -4.3023  -17.2820 O   0  0  0  0  0  0  0  0  0  0  0  0
   57.3761   -4.1109  -17.0098 C   0  0  0  0  0  0  0  0  0  0  0  0
   57.4897   -5.4812  -17.1757 O   0  0  0  0  0  0  0  0  0  0  0  0
   60.5878   -2.0341  -16.1127 H   0  0  0  0  0  0  0  0  0  0  0  0
   59.9965   -4.3327  -18.2602 H   0  0  0  0  0  0  0  0  0  0  0  0
   56.8368   -5.8162  -17.8375 H   0  0  0  0  0  0  0  0  0  0  0  0
   56.6198   -5.1177  -13.8133 O   0  0  0  0  0  0  0  0  0  0  0  0
   56.0127   -4.7208  -14.9940 C   0  0  0  0  0  0  0  0  0  0  0  0
   56.8639   -4.2814  -13.3091 H   0  0  0  0  0  0  0  0  0  0  0  0
 12 13  1  0  0  0
 13  1  1  0  0  0
  1  2  1  0  0  0
  2  3  1  0  0  0
  3  4  1  0  0  0
  3  5  1  0  0  0
  5  6  1  0  0  0
  5  7  1  0  0  0
  7  8  1  0  0  0
  7  1  1  0  0  0
 12 14  1  0  0  0
  4  9  1  0  0  0
  6 10  1  0  0  0
  8 11  1  0  0  0
M  END
> <minimizedAffinity>
-3.66711

> <CNNscore>
0.4715426862

> <CNNaffinity>
2.5157008171

> <CNN_VS>
1.1862603426

> <CNNaffinity_variance>
0.0189345665

$$$$
[H]OC([H])([H])[C@@]1([H])O[C@@]([H])(O[H])[C@@]([H])(O[H])[C@@]1([H])O[H]


 14 14  0  0  0  0  0  0  0  0999 V2000
   51.2407   -3.6949   -7.6124 C   0  0  0  0  0  0  0  0  0  0  0  0
   51.5062   -3.9384   -6.2662 O   0  0  0  0  0  0  0  0  0  0  0  0
   50.2791   -4.4401   -5.8318 C   0  0  0  0  0  0  0  0  0  0  0  0
   50.2498   -4.6117   -4.4505 O   0  0  0  0  0  0  0  0  0  0  0  0
   49.3094   -3.4061   -6.3122 C   0  0  0  0  0  0  0  0  0  0  0  0
   49.1298   -2.3929   -5.3673 O   0  0  0  0  0  0  0  0  0  0  0  0
   49.9857   -2.8897   -7.5681 C   0  0  0  0  0  0  0  0  0  0  0  0
   50.1935   -1.5209   -7.5332 O   0  0  0  0  0  0  0  0  0  0  0  0
   49.3274   -4.7969   -4.1973 H   0  0  0  0  0  0  0  0  0  0  0  0
   48.1772   -2.0784   -5.4350 H   0  0  0  0  0  0  0  0  0  0  0  0
   49.8626   -1.0882   -8.3576 H   0  0  0  0  0  0  0  0  0  0  0  0
   51.9069   -2.4230   -9.4636 O   0  0  0  0  0  0  0  0  0  0  0  0
   52.3865   -2.9829   -8.2903 C   0  0  0  0  0  0  0  0  0  0  0  0
   51.0784   -1.9026   -9.2274 H   0  0  0  0  0  0  0  0  0  0  0  0
 12 13  1  0  0  0
 13  1  1  0  0  0
  1  2  1  0  0  0
  2  3  1  0  0  0
  3  4  1  0  0  0
  3  5  1  0  0  0
  5  6  1  0  0  0
  5  7  1  0  0  0
  7  8  1  0  0  0
  7  1  1  0  0  0
 12 14  1  0  0  0
  4  9  1  0  0  0
  6 10  1  0  0  0
  8 11  1  0  0  0
M  END
> <minimizedAffinity>
-4.69197

> <CNNscore>
0.4708125591

> <CNNaffinity>
3.0416390896

> <CNN_VS>
1.4320418835

> <CNNaffinity_variance>
0.2750868499

$$$$
[H]OC([H])([H])[C@@]1([H])O[C@@]([H])(O[H])[C@@]([H])(O[H])[C@@]1([H])O[H]


 14 14  0  0  0  0  0  0  0  0999 V2000
   49.7414   -3.7352   -6.0015 C   0  0  0  0  0  0  0  0  0  0  0  0
   50.3937   -2.6095   -6.5007 O   0  0  0  0  0  0  0  0  0  0  0  0
   50.8055   -3.0649   -7.7533 C   0  0  0  0  0  0  0  0  0  0  0  0
   51.6345   -2.1463   -8.3913 O   0  0  0  0  0  0  0  0  0  0  0  0
   51.5004   -4.3498   -7.4268 C   0  0  0  0  0  0  0  0  0  0  0  0
   52.8552   -4.1453   -7.1536 O   0  0  0  0  0  0  0  0  0  0  0  0
   50.7446   -4.8214   -6.1989 C   0  0  0  0  0  0  0  0  0  0  0  0
   51.5767   -5.0265   -5.1110 O   0  0  0  0  0  0  0  0  0  0  0  0
   52.0186   -2.5888   -9.1697 H   0  0  0  0  0  0  0  0  0  0  0  0
   53.3570   -4.9538   -7.4783 H   0  0  0  0  0  0  0  0  0  0  0  0
   51.4211   -5.9136   -4.7046 H   0  0  0  0  0  0  0  0  0  0  0  0
   48.4820   -2.4593   -4.4933 O   0  0  0  0  0  0  0  0  0  0  0  0
   49.3309   -3.5525   -4.5601 C   0  0  0  0  0  0  0  0  0  0  0  0
   47.7698   -2.5932   -5.1919 H   0  0  0  0  0  0  0  0  0  0  0  0
 12 13  1  0  0  0
 13  1  1  0  0  0
  1  2  1  0  0  0
  2  3  1  0  0  0
  3  4  1  0  0  0
  3  5  1  0  0  0
  5  6  1  0  0  0
  5  7  1  0  0  0
  7  8  1  0  0  0
  7  1  1  0  0  0
 12 14  1  0  0  0
  4  9  1  0  0  0
  6 10  1  0  0  0
  8 11  1  0  0  0
M  END
> <minimizedAffinity>
-4.49823

> <CNNscore>
0.4565570652

> <CNNaffinity>
2.9388630390

> <CNN_VS>
1.3417587280

> <CNNaffinity_variance>
0.1623329073

$$$$
[H]OC([H])([H])[C@@]1([H])O[C@@]([H])(O[H])[C@]([H])(O[H])[C@]1([H])O[H]


 14 14  0  0  0  0  0  0  0  0999 V2000
   51.1781   -3.7038   -7.5874 C   0  0  0  0  0  0  0  0  0  0  0  0
   51.4898   -4.3903   -6.4252 O   0  0  0  0  0  0  0  0  0  0  0  0
   50.2509   -4.4727   -5.7534 C   0  0  0  0  0  0  0  0  0  0  0  0
   50.3538   -4.9961   -4.4995 O   0  0  0  0  0  0  0  0  0  0  0  0
   49.9123   -2.9746   -5.7446 C   0  0  0  0  0  0  0  0  0  0  0  0
   48.6536   -2.7270   -5.2902 O   0  0  0  0  0  0  0  0  0  0  0  0
   50.0998   -2.6954   -7.2233 C   0  0  0  0  0  0  0  0  0  0  0  0
   48.9524   -3.0085   -7.9408 O   0  0  0  0  0  0  0  0  0  0  0  0
   51.1562   -4.7074   -4.0363 H   0  0  0  0  0  0  0  0  0  0  0  0
   48.0201   -2.3566   -5.9229 H   0  0  0  0  0  0  0  0  0  0  0  0
   49.1362   -3.5491   -8.7547 H   0  0  0  0  0  0  0  0  0  0  0  0
   51.9052   -2.0446   -9.0824 O   0  0  0  0  0  0  0  0  0  0  0  0
   52.3677   -2.9720   -8.1699 C   0  0  0  0  0  0  0  0  0  0  0  0
   52.6614   -1.6446   -9.5734 H   0  0  0  0  0  0  0  0  0  0  0  0
 12 13  1  0  0  0
 13  1  1  0  0  0
  1  2  1  0  0  0
  2  3  1  0  0  0
  3  4  1  0  0  0
  3  5  1  0  0  0
  5  6  1  0  0  0
  5  7  1  0  0  0
  7  8  1  0  0  0
  7  1  1  0  0  0
 12 14  1  0  0  0
  4  9  1  0  0  0
  6 10  1  0  0  0
  8 11  1  0  0  0
M  END
> <minimizedAffinity>
-4.50801

> <CNNscore>
0.5265899897

> <CNNaffinity>
3.1061053276

> <CNN_VS>
1.6356439590

> <CNNaffinity_variance>
0.2373125255

$$$$
[H]OC([H])([H])[C@@]1([H])O[C@@]([H])(O[H])[C@]([H])(O[H])[C@]1([H])O[H]


 14 14  0  0  0  0  0  0  0  0999 V2000
   50.1869   -5.1170   -5.3419 C   0  0  0  0  0  0  0  0  0  0  0  0
   50.6375   -5.1956   -6.6495 O   0  0  0  0  0  0  0  0  0  0  0  0
   51.6421   -6.1855   -6.5888 C   0  0  0  0  0  0  0  0  0  0  0  0
   52.3283   -6.3266   -7.7576 O   0  0  0  0  0  0  0  0  0  0  0  0
   52.4927   -5.5588   -5.4740 C   0  0  0  0  0  0  0  0  0  0  0  0
   53.4913   -6.3826   -5.0542 O   0  0  0  0  0  0  0  0  0  0  0  0
   51.3955   -5.3482   -4.4486 C   0  0  0  0  0  0  0  0  0  0  0  0
   51.1741   -6.5026   -3.7086 O   0  0  0  0  0  0  0  0  0  0  0  0
   52.4858   -5.4804   -8.2056 H   0  0  0  0  0  0  0  0  0  0  0  0
   53.4396   -6.7120   -4.1444 H   0  0  0  0  0  0  0  0  0  0  0  0
   50.2113   -6.7377   -3.6305 H   0  0  0  0  0  0  0  0  0  0  0  0
   49.3335   -3.7213   -3.6565 O   0  0  0  0  0  0  0  0  0  0  0  0
   49.5763   -3.7715   -5.0148 C   0  0  0  0  0  0  0  0  0  0  0  0
   48.8168   -2.9112   -3.4333 H   0  0  0  0  0  0  0  0  0  0  0  0
 12 13  1  0  0  0
 13  1  1  0  0  0
  1  2  1  0  0  0
  2  3  1  0  0  0
  3  4  1  0  0  0
  3  5  1  0  0  0
  5  6  1  0  0  0
  5  7  1  0  0  0
  7  8  1  0  0  0
  7  1  1  0  0  0
 12 14  1  0  0  0
  4  9  1  0  0  0
  6 10  1  0  0  0
  8 11  1  0  0  0
M  END
> <minimizedAffinity>
-3.84594

> <CNNscore>
0.5201245546

> <CNNaffinity>
3.0365345478

> <CNN_VS>
1.5793762207

> <CNNaffinity_variance>
0.1963436604

$$$$
[H]OC([H])([H])[C@@]1([H])O[C@@]([H])(O[H])[C@]([H])(O[H])[C@]1([H])O[H]


 14 14  0  0  0  0  0  0  0  0999 V2000
   49.3889   -3.0138   -6.4284 C   0  0  0  0  0  0  0  0  0  0  0  0
   50.0403   -2.0174   -7.1368 O   0  0  0  0  0  0  0  0  0  0  0  0
   50.8866   -2.7372   -8.0077 C   0  0  0  0  0  0  0  0  0  0  0  0
   51.7370   -1.9385   -8.7120 O   0  0  0  0  0  0  0  0  0  0  0  0
   51.6090   -3.5859   -6.9509 C   0  0  0  0  0  0  0  0  0  0  0  0
   52.4098   -4.5371   -7.5041 O   0  0  0  0  0  0  0  0  0  0  0  0
   50.3900   -4.1429   -6.2415 C   0  0  0  0  0  0  0  0  0  0  0  0
   49.9023   -5.2680   -6.8939 O   0  0  0  0  0  0  0  0  0  0  0  0
   52.0738   -1.1941   -8.1884 H   0  0  0  0  0  0  0  0  0  0  0  0
   52.1637   -5.4626   -7.3564 H   0  0  0  0  0  0  0  0  0  0  0  0
   48.9182   -5.2429   -7.0329 H   0  0  0  0  0  0  0  0  0  0  0  0
   49.1274   -3.5576   -4.1584 O   0  0  0  0  0  0  0  0  0  0  0  0
   48.9072   -2.5461   -5.0721 C   0  0  0  0  0  0  0  0  0  0  0  0
   48.7055   -3.3338   -3.2954 H   0  0  0  0  0  0  0  0  0  0  0  0
 12 13  1  0  0  0
 13  1  1  0  0  0
  1  2  1  0  0  0
  2  3  1  0  0  0
  3  4  1  0  0  0
  3  5  1  0  0  0
  5  6  1  0  0  0
  5  7  1  0  0  0
  7  8  1  0  0  0
  7  1  1  0  0  0
 12 14  1  0  0  0
  4  9  1  0  0  0
  6 10  1  0  0  0
  8 11  1  0  0  0
M  END
> <minimizedAffinity>
-4.87252

> <CNNscore>
0.5069406033

> <CNNaffinity>
2.9729433060

> <CNN_VS>
1.5071057081

> <CNNaffinity_variance>
0.2985791564

$$$$
[H]OC([H])([H])[C@@]1([H])O[C@@]([H])(O[H])[C@]([H])(O[H])[C@]1([H])O[H]


 14 14  0  0  0  0  0  0  0  0999 V2000
   50.8129   -3.4159   -6.4269 C   0  0  0  0  0  0  0  0  0  0  0  0
   50.4095   -4.2825   -5.4244 O   0  0  0  0  0  0  0  0  0  0  0  0
   51.4356   -5.2517   -5.3992 C   0  0  0  0  0  0  0  0  0  0  0  0
   51.1675   -6.2962   -4.5660 O   0  0  0  0  0  0  0  0  0  0  0  0
   51.3905   -5.6494   -6.8820 C   0  0  0  0  0  0  0  0  0  0  0  0
   52.4072   -6.4849   -7.2291 O   0  0  0  0  0  0  0  0  0  0  0  0
   51.4977   -4.2633   -7.4876 C   0  0  0  0  0  0  0  0  0  0  0  0
   52.8233   -3.8582   -7.5780 O   0  0  0  0  0  0  0  0  0  0  0  0
   50.2329   -6.5569   -4.5789 H   0  0  0  0  0  0  0  0  0  0  0  0
   53.0641   -6.1453   -7.8553 H   0  0  0  0  0  0  0  0  0  0  0  0
   52.9740   -2.9366   -7.2369 H   0  0  0  0  0  0  0  0  0  0  0  0
   50.1535   -1.5618   -7.7093 O   0  0  0  0  0  0  0  0  0  0  0  0
   49.6552   -2.6713   -7.0557 C   0  0  0  0  0  0  0  0  0  0  0  0
   49.4130   -0.9872   -8.0166 H   0  0  0  0  0  0  0  0  0  0  0  0
 12 13  1  0  0  0
 13  1  1  0  0  0
  1  2  1  0  0  0
  2  3  1  0  0  0
  3  4  1  0  0  0
  3  5  1  0  0  0
  5  6  1  0  0  0
  5  7  1  0  0  0
  7  8  1  0  0  0
  7  1  1  0  0  0
 12 14  1  0  0  0
  4  9  1  0  0  0
  6 10  1  0  0  0
  8 11  1  0  0  0
M  END
> <minimizedAffinity>
-4.35086

> <CNNscore>
0.5033137798

> <CNNaffinity>
2.9949812889

> <CNN_VS>
1.5074152946

> <CNNaffinity_variance>
0.2352580577

$$$$
[H]OC([H])([H])[C@@]1([H])O[C@@]([H])(O[H])[C@]([H])(O[H])[C@]1([H])O[H]


 14 14  0  0  0  0  0  0  0  0999 V2000
   53.4644   -3.7957   -8.4394 C   0  0  0  0  0  0  0  0  0  0  0  0
   53.0334   -4.4813   -7.3155 O   0  0  0  0  0  0  0  0  0  0  0  0
   51.6275   -4.3761   -7.3890 C   0  0  0  0  0  0  0  0  0  0  0  0
   50.9938   -4.8693   -6.2881 O   0  0  0  0  0  0  0  0  0  0  0  0
   51.5327   -2.8465   -7.4921 C   0  0  0  0  0  0  0  0  0  0  0  0
   50.2663   -2.4184   -7.7470 O   0  0  0  0  0  0  0  0  0  0  0  0
   52.4966   -2.6410   -8.6446 C   0  0  0  0  0  0  0  0  0  0  0  0
   51.8604   -2.8195   -9.8664 O   0  0  0  0  0  0  0  0  0  0  0  0
   51.4678   -4.6765   -5.4636 H   0  0  0  0  0  0  0  0  0  0  0  0
   50.1091   -1.9862   -8.5998 H   0  0  0  0  0  0  0  0  0  0  0  0
   52.3683   -3.4048  -10.4892 H   0  0  0  0  0  0  0  0  0  0  0  0
   55.4294   -3.1341   -9.5429 O   0  0  0  0  0  0  0  0  0  0  0  0
   54.8670   -3.2484   -8.2870 C   0  0  0  0  0  0  0  0  0  0  0  0
   56.3859   -2.9052   -9.4674 H   0  0  0  0  0  0  0  0  0  0  0  0
 12 13  1  0  0  0
 13  1  1  0  0  0
  1  2  1  0  0  0
  2  3  1  0  0  0
  3  4  1  0  0  0
  3  5  1  0  0  0
  5  6  1  0  0  0
  5  7  1  0  0  0
  7  8  1  0  0  0
  7  1  1  0  0  0
 12 14  1  0  0  0
  4  9  1  0  0  0
  6 10  1  0  0  0
  8 11  1  0  0  0
M  END
> <minimizedAffinity>
-4.47852

> <CNNscore>
0.4880399704

> <CNNaffinity>
2.9220204353

> <CNN_VS>
1.4260628223

> <CNNaffinity_variance>
0.0922564566

$$$$
[H]OC([H])([H])[C@@]1([H])O[C@@]([H])(O[H])[C@]([H])(O[H])[C@]1([H])O[H]


 14 14  0  0  0  0  0  0  0  0999 V2000
   51.1695   -5.0768   -5.7918 C   0  0  0  0  0  0  0  0  0  0  0  0
   50.0764   -4.2335   -5.9058 O   0  0  0  0  0  0  0  0  0  0  0  0
   49.7996   -3.8766   -4.5683 C   0  0  0  0  0  0  0  0  0  0  0  0
   48.6551   -3.1496   -4.4323 O   0  0  0  0  0  0  0  0  0  0  0  0
   49.6738   -5.2940   -3.9903 C   0  0  0  0  0  0  0  0  0  0  0  0
   49.5619   -5.2963   -2.6340 O   0  0  0  0  0  0  0  0  0  0  0  0
   50.9844   -5.8600   -4.5016 C   0  0  0  0  0  0  0  0  0  0  0  0
   52.0330   -5.5436   -3.6474 O   0  0  0  0  0  0  0  0  0  0  0  0
   47.9486   -3.4460   -5.0278 H   0  0  0  0  0  0  0  0  0  0  0  0
   50.2882   -5.6947   -2.1313 H   0  0  0  0  0  0  0  0  0  0  0  0
   52.8304   -5.1880   -4.1230 H   0  0  0  0  0  0  0  0  0  0  0  0
   50.0158   -6.4851   -7.2760 O   0  0  0  0  0  0  0  0  0  0  0  0
   51.2831   -6.0447   -6.9496 C   0  0  0  0  0  0  0  0  0  0  0  0
   50.0695   -7.2144   -7.9380 H   0  0  0  0  0  0  0  0  0  0  0  0
 12 13  1  0  0  0
 13  1  1  0  0  0
  1  2  1  0  0  0
  2  3  1  0  0  0
  3  4  1  0  0  0
  3  5  1  0  0  0
  5  6  1  0  0  0
  5  7  1  0  0  0
  7  8  1  0  0  0
  7  1  1  0  0  0
 12 14  1  0  0  0
  4  9  1  0  0  0
  6 10  1  0  0  0
  8 11  1  0  0  0
M  END
> <minimizedAffinity>
-3.96437

> <CNNscore>
0.4831483066

> <CNNaffinity>
2.8225121498

> <CNN_VS>
1.3636919260

> <CNNaffinity_variance>
0.2320211381

$$$$
[H]OC([H])([H])[C@@]1([H])O[C@@]([H])(O[H])[C@]([H])(O[H])[C@]1([H])O[H]


 14 14  0  0  0  0  0  0  0  0999 V2000
   50.3796   -5.1633   -4.9289 C   0  0  0  0  0  0  0  0  0  0  0  0
   49.8654   -4.0966   -4.2102 O   0  0  0  0  0  0  0  0  0  0  0  0
   49.0813   -3.4100   -5.1624 C   0  0  0  0  0  0  0  0  0  0  0  0
   48.5861   -2.2282   -4.6987 O   0  0  0  0  0  0  0  0  0  0  0  0
   50.1650   -3.2191   -6.2340 C   0  0  0  0  0  0  0  0  0  0  0  0
   49.6676   -2.7094   -7.3938 O   0  0  0  0  0  0  0  0  0  0  0  0
   50.6274   -4.6592   -6.3420 C   0  0  0  0  0  0  0  0  0  0  0  0
   49.8171   -5.3811   -7.2089 O   0  0  0  0  0  0  0  0  0  0  0  0
   49.2149   -1.7536   -4.1322 H   0  0  0  0  0  0  0  0  0  0  0  0
   49.6989   -3.2797   -8.1765 H   0  0  0  0  0  0  0  0  0  0  0  0
   49.5287   -6.2564   -6.8361 H   0  0  0  0  0  0  0  0  0  0  0  0
   51.6763   -5.4476   -2.9913 O   0  0  0  0  0  0  0  0  0  0  0  0
   51.6776   -5.6846   -4.3516 C   0  0  0  0  0  0  0  0  0  0  0  0
   52.5613   -5.6565   -2.6090 H   0  0  0  0  0  0  0  0  0  0  0  0
 12 13  1  0  0  0
 13  1  1  0  0  0
  1  2  1  0  0  0
  2  3  1  0  0  0
  3  4  1  0  0  0
  3  5  1  0  0  0
  5  6  1  0  0  0
  5  7  1  0  0  0
  7  8  1  0  0  0
  7  1  1  0  0  0
 12 14  1  0  0  0
  4  9  1  0  0  0
  6 10  1  0  0  0
  8 11  1  0  0  0
M  END
> <minimizedAffinity>
-4.24428

> <CNNscore>
0.4810835123

> <CNNaffinity>
2.8784804344

> <CNN_VS>
1.3847894669

> <CNNaffinity_variance>
0.2547171712

$$$$
[H]OC([H])([H])[C@@]1([H])O[C@@]([H])(O[H])[C@]([H])(O[H])[C@]1([H])O[H]


 14 14  0  0  0  0  0  0  0  0999 V2000
   54.2727   -6.3957   -4.2538 C   0  0  0  0  0  0  0  0  0  0  0  0
   53.4015   -7.0675   -3.4120 O   0  0  0  0  0  0  0  0  0  0  0  0
   54.2554   -7.6187   -2.4322 C   0  0  0  0  0  0  0  0  0  0  0  0
   53.6123   -8.4519   -1.5667 O   0  0  0  0  0  0  0  0  0  0  0  0
   55.2095   -8.3657   -3.3759 C   0  0  0  0  0  0  0  0  0  0  0  0
   56.2830   -8.8903   -2.7243 O   0  0  0  0  0  0  0  0  0  0  0  0
   55.5527   -7.2151   -4.3021 C   0  0  0  0  0  0  0  0  0  0  0  0
   56.5826   -6.4429   -3.7800 O   0  0  0  0  0  0  0  0  0  0  0  0
   52.9330   -8.9927   -2.0002 H   0  0  0  0  0  0  0  0  0  0  0  0
   57.1538   -8.5255   -2.9420 H   0  0  0  0  0  0  0  0  0  0  0  0
   56.3938   -5.4674   -3.8116 H   0  0  0  0  0  0  0  0  0  0  0  0
   54.7753   -6.3568   -6.5478 O   0  0  0  0  0  0  0  0  0  0  0  0
   53.7268   -6.2421   -5.6568 C   0  0  0  0  0  0  0  0  0  0  0  0
   54.4730   -6.1311   -7.4592 H   0  0  0  0  0  0  0  0  0  0  0  0
 12 13  1  0  0  0
 13  1  1  0  0  0
  1  2  1  0  0  0
  2  3  1  0  0  0
  3  4  1  0  0  0
  3  5  1  0  0  0
  5  6  1  0  0  0
  5  7  1  0  0  0
  7  8  1  0  0  0
  7  1  1  0  0  0
 12 14  1  0  0  0
  4  9  1  0  0  0
  6 10  1  0  0  0
  8 11  1  0  0  0
M  END
> <minimizedAffinity>
-3.43573

> <CNNscore>
0.4609525204

> <CNNaffinity>
2.7088608742

> <CNN_VS>
1.2486562729

> <CNNaffinity_variance>
0.2261408567

$$$$
[H]OC([H])([H])[C@@]1([H])O[C@@]([H])(O[H])[C@]([H])(O[H])[C@]1([H])O[H]


 14 14  0  0  0  0  0  0  0  0999 V2000
   55.5809   -3.7421   -9.3023 C   0  0  0  0  0  0  0  0  0  0  0  0
   56.1270   -4.5477   -8.3165 O   0  0  0  0  0  0  0  0  0  0  0  0
   57.4803   -4.6618   -8.7018 C   0  0  0  0  0  0  0  0  0  0  0  0
   58.1845   -5.5414   -7.9354 O   0  0  0  0  0  0  0  0  0  0  0  0
   57.2529   -5.1720  -10.1326 C   0  0  0  0  0  0  0  0  0  0  0  0
   58.4051   -5.2317  -10.8543 O   0  0  0  0  0  0  0  0  0  0  0  0
   56.2875   -4.1002  -10.6003 C   0  0  0  0  0  0  0  0  0  0  0  0
   56.9680   -2.9754  -11.0488 O   0  0  0  0  0  0  0  0  0  0  0  0
   57.6664   -6.3241   -7.6893 H   0  0  0  0  0  0  0  0  0  0  0  0
   58.4826   -4.6345  -11.6134 H   0  0  0  0  0  0  0  0  0  0  0  0
   56.6055   -2.1266  -10.6793 H   0  0  0  0  0  0  0  0  0  0  0  0
   53.5489   -2.8127  -10.0261 O   0  0  0  0  0  0  0  0  0  0  0  0
   54.0921   -3.9544   -9.4712 C   0  0  0  0  0  0  0  0  0  0  0  0
   52.5641   -2.8705  -10.0267 H   0  0  0  0  0  0  0  0  0  0  0  0
 12 13  1  0  0  0
 13  1  1  0  0  0
  1  2  1  0  0  0
  2  3  1  0  0  0
  3  4  1  0  0  0
  3  5  1  0  0  0
  5  6  1  0  0  0
  5  7  1  0  0  0
  7  8  1  0  0  0
  7  1  1  0  0  0
 12 14  1  0  0  0
  4  9  1  0  0  0
  6 10  1  0  0  0
  8 11  1  0  0  0
M  END
> <minimizedAffinity>
-5.07045

> <CNNscore>
0.4605103433

> <CNNaffinity>
2.7253408432

> <CNN_VS>
1.2550476789

> <CNNaffinity_variance>
0.1586161107

$$$$
[H]c1nc2c(c([H])c1-c1c([H])c([H])c(S(=O)(=O)N([H])[H])c([H])c1[H])c([H])c([H])n2[H]


 22 24  0  0  0  0  0  0  0  0999 V2000
   58.2545   -5.4874   -9.3702 C   0  0  0  0  0  0  0  0  0  0  0  0
   57.7850   -5.4643   -8.0809 C   0  0  0  0  0  0  0  0  0  0  0  0
   56.5282   -4.9391   -7.8680 C   0  0  0  0  0  0  0  0  0  0  0  0
   55.7936   -4.4645   -8.9158 C   0  0  0  0  0  0  0  0  0  0  0  0
   56.2781   -4.4970  -10.1873 C   0  0  0  0  0  0  0  0  0  0  0  0
   57.5383   -5.0170  -10.4471 C   0  0  0  0  0  0  0  0  0  0  0  0
   54.4691   -3.9105   -8.6845 C   0  0  0  0  0  0  0  0  0  0  0  0
   54.0204   -2.8350   -9.4196 C   0  0  0  0  0  0  0  0  0  0  0  0
   52.8043   -2.3483   -9.1855 N   0  0  0  0  0  0  0  0  0  0  0  0
   51.9777   -2.8774   -8.2379 C   0  0  0  0  0  0  0  0  0  0  0  0
   50.7366   -2.5735   -7.8222 N   0  0  0  0  0  0  0  0  0  0  0  0
   50.3326   -3.3978   -6.8403 C   0  0  0  0  0  0  0  0  0  0  0  0
   51.3626   -4.2810   -6.6068 C   0  0  0  0  0  0  0  0  0  0  0  0
   52.3815   -3.9520   -7.4787 C   0  0  0  0  0  0  0  0  0  0  0  0
   53.6401   -4.4694   -7.7084 C   0  0  0  0  0  0  0  0  0  0  0  0
   50.1661   -1.7829   -8.2276 H   0  0  0  0  0  0  0  0  0  0  0  0
   59.7308   -7.8585   -9.8390 N   0  0  0  0  0  0  0  0  0  0  0  0
   59.8552   -6.1502   -9.6680 S   0  0  0  0  0  0  0  0  0  0  0  0
   60.4527   -5.5164  -10.9040 O   0  0  0  0  0  0  0  0  0  0  0  0
   60.7331   -5.8726   -8.4810 O   0  0  0  0  0  0  0  0  0  0  0  0
   59.9646   -8.3683   -8.9569 H   0  0  0  0  0  0  0  0  0  0  0  0
   60.1828   -8.2317  -10.6815 H   0  0  0  0  0  0  0  0  0  0  0  0
 17 18  1  0  0  0
 18 19  2  0  0  0
 18 20  2  0  0  0
 18  1  1  0  0  0
  1  2  2  0  0  0
  2  3  1  0  0  0
  3  4  2  0  0  0
  4  5  1  0  0  0
  5  6  2  0  0  0
  4  7  1  0  0  0
  7  8  2  0  0  0
  8  9  1  0  0  0
  9 10  2  0  0  0
 10 11  1  0  0  0
 11 12  1  0  0  0
 12 13  2  0  0  0
 13 14  1  0  0  0
 14 15  2  0  0  0
  6  1  1  0  0  0
 15  7  1  0  0  0
 14 10  1  0  0  0
 17 21  1  0  0  0
 17 22  1  0  0  0
 11 16  1  0  0  0
M  END
> <minimizedAffinity>
-9.06791

> <CNNscore>
0.9409719706

> <CNNaffinity>
6.1818647385

> <CNN_VS>
5.8169612885

> <CNNaffinity_variance>
0.0874058753

$$$$
[H]c1nc2c(c([H])c1-c1c([H])c([H])c(S(=O)(=O)N([H])[H])c([H])c1[H])c([H])c([H])n2[H]


 22 24  0  0  0  0  0  0  0  0999 V2000
   56.4150   -4.3400  -10.4074 C   0  0  0  0  0  0  0  0  0  0  0  0
   56.5635   -4.6811   -9.0865 C   0  0  0  0  0  0  0  0  0  0  0  0
   55.4527   -4.5920   -8.2748 C   0  0  0  0  0  0  0  0  0  0  0  0
   54.2574   -4.1771   -8.7866 C   0  0  0  0  0  0  0  0  0  0  0  0
   54.1317   -3.8434  -10.1002 C   0  0  0  0  0  0  0  0  0  0  0  0
   55.2239   -3.9185  -10.9529 C   0  0  0  0  0  0  0  0  0  0  0  0
   53.0896   -4.0838   -7.9250 C   0  0  0  0  0  0  0  0  0  0  0  0
   52.1497   -3.0958   -8.1219 C   0  0  0  0  0  0  0  0  0  0  0  0
   51.0917   -3.0342   -7.3173 N   0  0  0  0  0  0  0  0  0  0  0  0
   50.9001   -3.9186   -6.2965 C   0  0  0  0  0  0  0  0  0  0  0  0
   49.9385   -4.0633   -5.3690 N   0  0  0  0  0  0  0  0  0  0  0  0
   50.1918   -5.1051   -4.5584 C   0  0  0  0  0  0  0  0  0  0  0  0
   51.3768   -5.6648   -4.9804 C   0  0  0  0  0  0  0  0  0  0  0  0
   51.8113   -4.9227   -6.0607 C   0  0  0  0  0  0  0  0  0  0  0  0
   52.9147   -5.0014   -6.8859 C   0  0  0  0  0  0  0  0  0  0  0  0
   49.0974   -3.4286   -5.3012 H   0  0  0  0  0  0  0  0  0  0  0  0
   58.3459   -2.8509  -11.8481 N   0  0  0  0  0  0  0  0  0  0  0  0
   57.8170   -4.4431  -11.4629 S   0  0  0  0  0  0  0  0  0  0  0  0
   58.9121   -5.2373  -10.7874 O   0  0  0  0  0  0  0  0  0  0  0  0
   57.4206   -5.1157  -12.7462 O   0  0  0  0  0  0  0  0  0  0  0  0
   57.9922   -2.5239  -12.7757 H   0  0  0  0  0  0  0  0  0  0  0  0
   59.3473   -2.6900  -11.6911 H   0  0  0  0  0  0  0  0  0  0  0  0
 17 18  1  0  0  0
 18 19  2  0  0  0
 18 20  2  0  0  0
 18  1  1  0  0  0
  1  2  2  0  0  0
  2  3  1  0  0  0
  3  4  2  0  0  0
  4  5  1  0  0  0
  5  6  2  0  0  0
  4  7  1  0  0  0
  7  8  2  0  0  0
  8  9  1  0  0  0
  9 10  2  0  0  0
 10 11  1  0  0  0
 11 12  1  0  0  0
 12 13  2  0  0  0
 13 14  1  0  0  0
 14 15  2  0  0  0
  6  1  1  0  0  0
 15  7  1  0  0  0
 14 10  1  0  0  0
 17 21  1  0  0  0
 17 22  1  0  0  0
 11 16  1  0  0  0
M  END
> <minimizedAffinity>
-8.69746

> <CNNscore>
0.5121012330

> <CNNaffinity>
5.7576584816

> <CNN_VS>
2.9485039711

> <CNNaffinity_variance>
0.1165860444

$$$$
[H]c1nc2c(c([H])c1-c1c([H])c([H])c(S(=O)(=O)N([H])[H])c([H])c1[H])c([H])c([H])n2[H]


 22 24  0  0  0  0  0  0  0  0999 V2000
   52.1233   -5.8259   -3.9582 C   0  0  0  0  0  0  0  0  0  0  0  0
   53.4815   -5.9671   -4.0942 C   0  0  0  0  0  0  0  0  0  0  0  0
   54.0456   -5.5929   -5.2952 C   0  0  0  0  0  0  0  0  0  0  0  0
   53.2634   -5.1019   -6.3001 C   0  0  0  0  0  0  0  0  0  0  0  0
   51.9177   -4.9698   -6.1444 C   0  0  0  0  0  0  0  0  0  0  0  0
   51.3082   -5.3342   -4.9520 C   0  0  0  0  0  0  0  0  0  0  0  0
   53.8642   -4.7102   -7.5651 C   0  0  0  0  0  0  0  0  0  0  0  0
   53.1087   -4.0964   -8.5403 C   0  0  0  0  0  0  0  0  0  0  0  0
   53.6851   -3.7500   -9.6885 N   0  0  0  0  0  0  0  0  0  0  0  0
   55.0059   -3.9811   -9.9397 C   0  0  0  0  0  0  0  0  0  0  0  0
   55.8023   -3.7322  -10.9930 N   0  0  0  0  0  0  0  0  0  0  0  0
   57.0591   -4.1520  -10.7676 C   0  0  0  0  0  0  0  0  0  0  0  0
   57.0799   -4.7008   -9.5050 C   0  0  0  0  0  0  0  0  0  0  0  0
   55.8009   -4.5913   -8.9965 C   0  0  0  0  0  0  0  0  0  0  0  0
   55.2194   -4.9572   -7.7996 C   0  0  0  0  0  0  0  0  0  0  0  0
   55.4652   -3.2649  -11.8778 H   0  0  0  0  0  0  0  0  0  0  0  0
   52.2888   -5.6286   -1.1377 N   0  0  0  0  0  0  0  0  0  0  0  0
   51.3793   -6.2979   -2.4370 S   0  0  0  0  0  0  0  0  0  0  0  0
   49.9421   -5.8296   -2.4000 O   0  0  0  0  0  0  0  0  0  0  0  0
   51.4288   -7.7936   -2.3064 O   0  0  0  0  0  0  0  0  0  0  0  0
   52.9626   -6.3129   -0.7251 H   0  0  0  0  0  0  0  0  0  0  0  0
   51.7260   -5.1147   -0.4503 H   0  0  0  0  0  0  0  0  0  0  0  0
 17 18  1  0  0  0
 18 19  2  0  0  0
 18 20  2  0  0  0
 18  1  1  0  0  0
  1  2  2  0  0  0
  2  3  1  0  0  0
  3  4  2  0  0  0
  4  5  1  0  0  0
  5  6  2  0  0  0
  4  7  1  0  0  0
  7  8  2  0  0  0
  8  9  1  0  0  0
  9 10  2  0  0  0
 10 11  1  0  0  0
 11 12  1  0  0  0
 12 13  2  0  0  0
 13 14  1  0  0  0
 14 15  2  0  0  0
  6  1  1  0  0  0
 15  7  1  0  0  0
 14 10  1  0  0  0
 17 21  1  0  0  0
 17 22  1  0  0  0
 11 16  1  0  0  0
M  END
> <minimizedAffinity>
-8.62944

> <CNNscore>
0.4814545810

> <CNNaffinity>
5.8723764420

> <CNN_VS>
2.8272824287

> <CNNaffinity_variance>
0.2402357161

$$$$
[H]c1nc2c(c([H])c1-c1c([H])c([H])c(S(=O)(=O)N([H])[H])c([H])c1[H])c([H])c([H])n2[H]


 22 24  0  0  0  0  0  0  0  0999 V2000
   61.0924   -6.3156   -9.7103 C   0  0  0  0  0  0  0  0  0  0  0  0
   60.5879   -5.8495  -10.8983 C   0  0  0  0  0  0  0  0  0  0  0  0
   59.2967   -5.3661  -10.8983 C   0  0  0  0  0  0  0  0  0  0  0  0
   58.5637   -5.3603   -9.7470 C   0  0  0  0  0  0  0  0  0  0  0  0
   59.0834   -5.8273   -8.5790 C   0  0  0  0  0  0  0  0  0  0  0  0
   60.3789   -6.3228   -8.5336 C   0  0  0  0  0  0  0  0  0  0  0  0
   57.2018   -4.8503   -9.7538 C   0  0  0  0  0  0  0  0  0  0  0  0
   56.6572   -4.3194  -10.9026 C   0  0  0  0  0  0  0  0  0  0  0  0
   55.4089   -3.8593  -10.8790 N   0  0  0  0  0  0  0  0  0  0  0  0
   54.6411   -3.8932   -9.7519 C   0  0  0  0  0  0  0  0  0  0  0  0
   53.3851   -3.5013   -9.4787 N   0  0  0  0  0  0  0  0  0  0  0  0
   53.0629   -3.7458   -8.1969 C   0  0  0  0  0  0  0  0  0  0  0  0
   54.1644   -4.3255   -7.6084 C   0  0  0  0  0  0  0  0  0  0  0  0
   55.1412   -4.4140   -8.5802 C   0  0  0  0  0  0  0  0  0  0  0  0
   56.4344   -4.8958   -8.5869 C   0  0  0  0  0  0  0  0  0  0  0  0
   52.7468   -3.0586  -10.1938 H   0  0  0  0  0  0  0  0  0  0  0  0
   63.1312   -7.5402  -11.2483 N   0  0  0  0  0  0  0  0  0  0  0  0
   62.7358   -6.9393   -9.6844 S   0  0  0  0  0  0  0  0  0  0  0  0
   63.6929   -5.8497   -9.2565 O   0  0  0  0  0  0  0  0  0  0  0  0
   62.8125   -8.0889   -8.7205 O   0  0  0  0  0  0  0  0  0  0  0  0
   63.0127   -8.5761  -11.3220 H   0  0  0  0  0  0  0  0  0  0  0  0
   64.0162   -7.1829  -11.6256 H   0  0  0  0  0  0  0  0  0  0  0  0
 17 18  1  0  0  0
 18 19  2  0  0  0
 18 20  2  0  0  0
 18  1  1  0  0  0
  1  2  2  0  0  0
  2  3  1  0  0  0
  3  4  2  0  0  0
  4  5  1  0  0  0
  5  6  2  0  0  0
  4  7  1  0  0  0
  7  8  2  0  0  0
  8  9  1  0  0  0
  9 10  2  0  0  0
 10 11  1  0  0  0
 11 12  1  0  0  0
 12 13  2  0  0  0
 13 14  1  0  0  0
 14 15  2  0  0  0
  6  1  1  0  0  0
 15  7  1  0  0  0
 14 10  1  0  0  0
 17 21  1  0  0  0
 17 22  1  0  0  0
 11 16  1  0  0  0
M  END
> <minimizedAffinity>
-5.41233

> <CNNscore>
0.4341882169

> <CNNaffinity>
4.8692750931

> <CNN_VS>
2.1141817570

> <CNNaffinity_variance>
0.1038638577

$$$$
[H]c1nc2c(c([H])c1-c1c([H])c([H])c(S(=O)(=O)N([H])[H])c([H])c1[H])c([H])c([H])n2[H]


 22 24  0  0  0  0  0  0  0  0999 V2000
   55.5960   -4.2019  -10.1862 C   0  0  0  0  0  0  0  0  0  0  0  0
   54.4097   -3.6617  -10.6155 C   0  0  0  0  0  0  0  0  0  0  0  0
   53.3699   -3.6041   -9.7120 C   0  0  0  0  0  0  0  0  0  0  0  0
   53.5353   -4.0730   -8.4410 C   0  0  0  0  0  0  0  0  0  0  0  0
   54.7206   -4.6051   -8.0354 C   0  0  0  0  0  0  0  0  0  0  0  0
   55.7937   -4.6826   -8.9120 C   0  0  0  0  0  0  0  0  0  0  0  0
   52.4342   -4.0107   -7.4931 C   0  0  0  0  0  0  0  0  0  0  0  0
   51.4520   -3.0529   -7.6207 C   0  0  0  0  0  0  0  0  0  0  0  0
   50.4570   -3.0192   -6.7379 N   0  0  0  0  0  0  0  0  0  0  0  0
   50.3711   -3.9035   -5.7027 C   0  0  0  0  0  0  0  0  0  0  0  0
   49.4880   -4.0724   -4.7041 N   0  0  0  0  0  0  0  0  0  0  0  0
   49.8344   -5.1016   -3.9118 C   0  0  0  0  0  0  0  0  0  0  0  0
   51.0005   -5.6271   -4.4213 C   0  0  0  0  0  0  0  0  0  0  0  0
   51.3282   -4.8780   -5.5339 C   0  0  0  0  0  0  0  0  0  0  0  0
   52.3675   -4.9275   -6.4407 C   0  0  0  0  0  0  0  0  0  0  0  0
   48.6353   -3.4634   -4.5742 H   0  0  0  0  0  0  0  0  0  0  0  0
   57.5090   -2.6957  -11.6329 N   0  0  0  0  0  0  0  0  0  0  0  0
   56.9367   -4.2887  -11.3198 S   0  0  0  0  0  0  0  0  0  0  0  0
   58.0321   -5.1647  -10.7550 O   0  0  0  0  0  0  0  0  0  0  0  0
   56.4481   -4.8622  -12.6194 O   0  0  0  0  0  0  0  0  0  0  0  0
   57.1217   -2.2968  -12.5180 H   0  0  0  0  0  0  0  0  0  0  0  0
   58.5228   -2.5824  -11.5203 H   0  0  0  0  0  0  0  0  0  0  0  0
 17 18  1  0  0  0
 18 19  2  0  0  0
 18 20  2  0  0  0
 18  1  1  0  0  0
  1  2  2  0  0  0
  2  3  1  0  0  0
  3  4  2  0  0  0
  4  5  1  0  0  0
  5  6  2  0  0  0
  4  7  1  0  0  0
  7  8  2  0  0  0
  8  9  1  0  0  0
  9 10  2  0  0  0
 10 11  1  0  0  0
 11 12  1  0  0  0
 12 13  2  0  0  0
 13 14  1  0  0  0
 14 15  2  0  0  0
  6  1  1  0  0  0
 15  7  1  0  0  0
 14 10  1  0  0  0
 17 21  1  0  0  0
 17 22  1  0  0  0
 11 16  1  0  0  0
M  END
> <minimizedAffinity>
-8.63382

> <CNNscore>
0.3734303713

> <CNNaffinity>
5.7988009453

> <CNN_VS>
2.1654484272

> <CNNaffinity_variance>
0.1041781902

$$$$
[H]c1nc2c(c([H])c1-c1c([H])c([H])c(S(=O)(=O)N([H])[H])c([H])c1[H])c([H])c([H])n2[H]


 22 24  0  0  0  0  0  0  0  0999 V2000
   55.7433   -4.1932  -10.4363 C   0  0  0  0  0  0  0  0  0  0  0  0
   56.0234   -3.7889   -9.1552 C   0  0  0  0  0  0  0  0  0  0  0  0
   54.9873   -3.7845   -8.2457 C   0  0  0  0  0  0  0  0  0  0  0  0
   53.7354   -4.1723   -8.6263 C   0  0  0  0  0  0  0  0  0  0  0  0
   53.4789   -4.5700   -9.9025 C   0  0  0  0  0  0  0  0  0  0  0  0
   54.4923   -4.5898  -10.8504 C   0  0  0  0  0  0  0  0  0  0  0  0
   52.6463   -4.1642   -7.6626 C   0  0  0  0  0  0  0  0  0  0  0  0
   51.8803   -3.0337   -7.4793 C   0  0  0  0  0  0  0  0  0  0  0  0
   50.8909   -3.0550   -6.5897 N   0  0  0  0  0  0  0  0  0  0  0  0
   50.6034   -4.1619   -5.8460 C   0  0  0  0  0  0  0  0  0  0  0  0
   49.6800   -4.4285   -4.9069 N   0  0  0  0  0  0  0  0  0  0  0  0
   49.7927   -5.6883   -4.4519 C   0  0  0  0  0  0  0  0  0  0  0  0
   50.8415   -6.2687   -5.1292 C   0  0  0  0  0  0  0  0  0  0  0  0
   51.3405   -5.3147   -5.9938 C   0  0  0  0  0  0  0  0  0  0  0  0
   52.3706   -5.3102   -6.9123 C   0  0  0  0  0  0  0  0  0  0  0  0
   48.9643   -3.7242   -4.5803 H   0  0  0  0  0  0  0  0  0  0  0  0
   56.3803   -4.4460  -13.1844 N   0  0  0  0  0  0  0  0  0  0  0  0
   57.0470   -4.2057  -11.6156 S   0  0  0  0  0  0  0  0  0  0  0  0
   57.8211   -2.9090  -11.5405 O   0  0  0  0  0  0  0  0  0  0  0  0
   57.9630   -5.3607  -11.3268 O   0  0  0  0  0  0  0  0  0  0  0  0
   56.4344   -5.4425  -13.4951 H   0  0  0  0  0  0  0  0  0  0  0  0
   56.6914   -3.7623  -13.8837 H   0  0  0  0  0  0  0  0  0  0  0  0
 17 18  1  0  0  0
 18 19  2  0  0  0
 18 20  2  0  0  0
 18  1  1  0  0  0
  1  2  2  0  0  0
  2  3  1  0  0  0
  3  4  2  0  0  0
  4  5  1  0  0  0
  5  6  2  0  0  0
  4  7  1  0  0  0
  7  8  2  0  0  0
  8  9  1  0  0  0
  9 10  2  0  0  0
 10 11  1  0  0  0
 11 12  1  0  0  0
 12 13  2  0  0  0
 13 14  1  0  0  0
 14 15  2  0  0  0
  6  1  1  0  0  0
 15  7  1  0  0  0
 14 10  1  0  0  0
 17 21  1  0  0  0
 17 22  1  0  0  0
 11 16  1  0  0  0
M  END
> <minimizedAffinity>
-5.56525

> <CNNscore>
0.3725557327

> <CNNaffinity>
5.5293583870

> <CNN_VS>
2.0599942207

> <CNNaffinity_variance>
0.1780629456

$$$$
[H]c1nc2c(c([H])c1-c1c([H])c([H])c(S(=O)(=O)N([H])[H])c([H])c1[H])c([H])c([H])n2[H]


 22 24  0  0  0  0  0  0  0  0999 V2000
   56.9085   -4.4062  -11.1582 C   0  0  0  0  0  0  0  0  0  0  0  0
   55.6766   -4.0482  -10.6709 C   0  0  0  0  0  0  0  0  0  0  0  0
   55.4400   -4.2431   -9.3267 C   0  0  0  0  0  0  0  0  0  0  0  0
   56.4098   -4.7744   -8.5268 C   0  0  0  0  0  0  0  0  0  0  0  0
   57.6253   -5.1228   -9.0305 C   0  0  0  0  0  0  0  0  0  0  0  0
   57.9063   -4.9437  -10.3777 C   0  0  0  0  0  0  0  0  0  0  0  0
   56.1536   -4.9789   -7.1100 C   0  0  0  0  0  0  0  0  0  0  0  0
   56.2574   -3.9321   -6.2202 C   0  0  0  0  0  0  0  0  0  0  0  0
   56.0182   -4.1489   -4.9292 N   0  0  0  0  0  0  0  0  0  0  0  0
   55.6714   -5.3777   -4.4488 C   0  0  0  0  0  0  0  0  0  0  0  0
   55.3860   -5.8414   -3.2203 N   0  0  0  0  0  0  0  0  0  0  0  0
   55.0952   -7.1535   -3.2466 C   0  0  0  0  0  0  0  0  0  0  0  0
   55.1968   -7.5621   -4.5574 C   0  0  0  0  0  0  0  0  0  0  0  0
   55.5550   -6.4538   -5.2989 C   0  0  0  0  0  0  0  0  0  0  0  0
   55.7996   -6.2467   -6.6413 C   0  0  0  0  0  0  0  0  0  0  0  0
   55.3945   -5.2362   -2.3551 H   0  0  0  0  0  0  0  0  0  0  0  0
   56.2191   -2.9132  -13.4641 N   0  0  0  0  0  0  0  0  0  0  0  0
   57.2345   -4.1696  -12.8694 S   0  0  0  0  0  0  0  0  0  0  0  0
   58.6955   -3.8380  -13.0737 O   0  0  0  0  0  0  0  0  0  0  0  0
   56.8905   -5.4269  -13.6159 O   0  0  0  0  0  0  0  0  0  0  0  0
   55.3639   -3.2799  -13.9403 H   0  0  0  0  0  0  0  0  0  0  0  0
   56.7158   -2.1796  -13.9820 H   0  0  0  0  0  0  0  0  0  0  0  0
 17 18  1  0  0  0
 18 19  2  0  0  0
 18 20  2  0  0  0
 18  1  1  0  0  0
  1  2  2  0  0  0
  2  3  1  0  0  0
  3  4  2  0  0  0
  4  5  1  0  0  0
  5  6  2  0  0  0
  4  7  1  0  0  0
  7  8  2  0  0  0
  8  9  1  0  0  0
  9 10  2  0  0  0
 10 11  1  0  0  0
 11 12  1  0  0  0
 12 13  2  0  0  0
 13 14  1  0  0  0
 14 15  2  0  0  0
  6  1  1  0  0  0
 15  7  1  0  0  0
 14 10  1  0  0  0
 17 21  1  0  0  0
 17 22  1  0  0  0
 11 16  1  0  0  0
M  END
> <minimizedAffinity>
-6.76112

> <CNNscore>
0.3699547052

> <CNNaffinity>
5.1717967987

> <CNN_VS>
1.9133305550

> <CNNaffinity_variance>
0.1832609624

$$$$
[H]c1nc2c(c([H])c1-c1c([H])c([H])c(S(=O)(=O)N([H])[H])c([H])c1[H])c([H])c([H])n2[H]


 22 24  0  0  0  0  0  0  0  0999 V2000
   56.4503   -4.3753  -10.4071 C   0  0  0  0  0  0  0  0  0  0  0  0
   56.6520   -4.7434   -9.1006 C   0  0  0  0  0  0  0  0  0  0  0  0
   55.5677   -4.7006   -8.2501 C   0  0  0  0  0  0  0  0  0  0  0  0
   54.3461   -4.3035   -8.7113 C   0  0  0  0  0  0  0  0  0  0  0  0
   54.1676   -3.9425  -10.0115 C   0  0  0  0  0  0  0  0  0  0  0  0
   55.2316   -3.9708  -10.9020 C   0  0  0  0  0  0  0  0  0  0  0  0
   53.2066   -4.2591   -7.8090 C   0  0  0  0  0  0  0  0  0  0  0  0
   53.0879   -5.1716   -6.7835 C   0  0  0  0  0  0  0  0  0  0  0  0
   52.0338   -5.1075   -5.9739 N   0  0  0  0  0  0  0  0  0  0  0  0
   51.0580   -4.1657   -6.1212 C   0  0  0  0  0  0  0  0  0  0  0  0
   49.9241   -3.8990   -5.4513 N   0  0  0  0  0  0  0  0  0  0  0  0
   49.2765   -2.8476   -5.9822 C   0  0  0  0  0  0  0  0  0  0  0  0
   50.0273   -2.4096   -7.0500 C   0  0  0  0  0  0  0  0  0  0  0  0
   51.1328   -3.2331   -7.1305 C   0  0  0  0  0  0  0  0  0  0  0  0
   52.2196   -3.2849   -7.9796 C   0  0  0  0  0  0  0  0  0  0  0  0
   49.5990   -4.4564   -4.6156 H   0  0  0  0  0  0  0  0  0  0  0  0
   58.2792   -2.8059  -11.8950 N   0  0  0  0  0  0  0  0  0  0  0  0
   57.8176   -4.4193  -11.5113 S   0  0  0  0  0  0  0  0  0  0  0  0
   58.9614   -5.1833  -10.8835 O   0  0  0  0  0  0  0  0  0  0  0  0
   57.3995   -5.0908  -12.7883 O   0  0  0  0  0  0  0  0  0  0  0  0
   57.8827   -2.4809  -12.8059 H   0  0  0  0  0  0  0  0  0  0  0  0
   59.2795   -2.6130  -11.7706 H   0  0  0  0  0  0  0  0  0  0  0  0
 17 18  1  0  0  0
 18 19  2  0  0  0
 18 20  2  0  0  0
 18  1  1  0  0  0
  1  2  2  0  0  0
  2  3  1  0  0  0
  3  4  2  0  0  0
  4  5  1  0  0  0
  5  6  2  0  0  0
  4  7  1  0  0  0
  7  8  2  0  0  0
  8  9  1  0  0  0
  9 10  2  0  0  0
 10 11  1  0  0  0
 11 12  1  0  0  0
 12 13  2  0  0  0
 13 14  1  0  0  0
 14 15  2  0  0  0
  6  1  1  0  0  0
 15  7  1  0  0  0
 14 10  1  0  0  0
 17 21  1  0  0  0
 17 22  1  0  0  0
 11 16  1  0  0  0
M  END
> <minimizedAffinity>
-9.46715

> <CNNscore>
0.3596873879

> <CNNaffinity>
5.5856370926

> <CNN_VS>
2.0090832710

> <CNNaffinity_variance>
0.1721747220

$$$$
[H]c1nc2c(c([H])c1-c1c([H])c([H])c(S(=O)(=O)N([H])[H])c([H])c1[H])c([H])c([H])n2[H]


 22 24  0  0  0  0  0  0  0  0999 V2000
   56.4366   -4.3652  -10.4099 C   0  0  0  0  0  0  0  0  0  0  0  0
   55.2235   -3.9574  -10.9051 C   0  0  0  0  0  0  0  0  0  0  0  0
   54.1566   -3.9218  -10.0327 C   0  0  0  0  0  0  0  0  0  0  0  0
   54.3223   -4.2833   -8.7271 C   0  0  0  0  0  0  0  0  0  0  0  0
   55.5346   -4.6849   -8.2561 C   0  0  0  0  0  0  0  0  0  0  0  0
   56.6355   -4.7355   -9.0995 C   0  0  0  0  0  0  0  0  0  0  0  0
   53.1927   -4.2450   -7.8121 C   0  0  0  0  0  0  0  0  0  0  0  0
   53.0974   -5.1494   -6.7770 C   0  0  0  0  0  0  0  0  0  0  0  0
   52.0519   -5.0912   -5.9559 N   0  0  0  0  0  0  0  0  0  0  0  0
   51.0625   -4.1632   -6.1006 C   0  0  0  0  0  0  0  0  0  0  0  0
   49.9330   -3.9048   -5.4202 N   0  0  0  0  0  0  0  0  0  0  0  0
   49.2660   -2.8667   -5.9532 C   0  0  0  0  0  0  0  0  0  0  0  0
   49.9989   -2.4292   -7.0335 C   0  0  0  0  0  0  0  0  0  0  0  0
   51.1138   -3.2392   -7.1192 C   0  0  0  0  0  0  0  0  0  0  0  0
   52.1914   -3.2851   -7.9802 C   0  0  0  0  0  0  0  0  0  0  0  0
   49.6246   -4.4585   -4.5757 H   0  0  0  0  0  0  0  0  0  0  0  0
   58.3079   -2.8123  -11.8619 N   0  0  0  0  0  0  0  0  0  0  0  0
   57.8125   -4.4212  -11.5027 S   0  0  0  0  0  0  0  0  0  0  0  0
   58.9362   -5.2147  -10.8748 O   0  0  0  0  0  0  0  0  0  0  0  0
   57.3931   -5.0687  -12.7917 O   0  0  0  0  0  0  0  0  0  0  0  0
   57.9257   -2.4684  -12.7720 H   0  0  0  0  0  0  0  0  0  0  0  0
   59.3105   -2.6399  -11.7264 H   0  0  0  0  0  0  0  0  0  0  0  0
 17 18  1  0  0  0
 18 19  2  0  0  0
 18 20  2  0  0  0
 18  1  1  0  0  0
  1  2  2  0  0  0
  2  3  1  0  0  0
  3  4  2  0  0  0
  4  5  1  0  0  0
  5  6  2  0  0  0
  4  7  1  0  0  0
  7  8  2  0  0  0
  8  9  1  0  0  0
  9 10  2  0  0  0
 10 11  1  0  0  0
 11 12  1  0  0  0
 12 13  2  0  0  0
 13 14  1  0  0  0
 14 15  2  0  0  0
  6  1  1  0  0  0
 15  7  1  0  0  0
 14 10  1  0  0  0
 17 21  1  0  0  0
 17 22  1  0  0  0
 11 16  1  0  0  0
M  END
> <minimizedAffinity>
-9.46825

> <CNNscore>
0.3487085402

> <CNNaffinity>
5.5704727173

> <CNN_VS>
1.9424713850

> <CNNaffinity_variance>
0.1767095029

$$$$
[H]OC([H])([H])[C@@]1([H])O[C@@]([H])(O[H])[C@]([H])(O[H])[C@@]1([H])O[H]


 14 14  0  0  0  0  0  0  0  0999 V2000
   50.2944   -3.4197   -5.9228 C   0  0  0  0  0  0  0  0  0  0  0  0
   49.3113   -3.5468   -4.9711 O   0  0  0  0  0  0  0  0  0  0  0  0
   49.7942   -4.4294   -3.9913 C   0  0  0  0  0  0  0  0  0  0  0  0
   48.8139   -4.8991   -3.1746 O   0  0  0  0  0  0  0  0  0  0  0  0
   50.3692   -5.5168   -4.9100 C   0  0  0  0  0  0  0  0  0  0  0  0
   51.1039   -6.4442   -4.2100 O   0  0  0  0  0  0  0  0  0  0  0  0
   51.2144   -4.6177   -5.7873 C   0  0  0  0  0  0  0  0  0  0  0  0
   51.5733   -5.1774   -6.9769 O   0  0  0  0  0  0  0  0  0  0  0  0
   49.1038   -4.7549   -2.2280 H   0  0  0  0  0  0  0  0  0  0  0  0
   51.9587   -6.1204   -3.8930 H   0  0  0  0  0  0  0  0  0  0  0  0
   52.5673   -5.0595   -7.0880 H   0  0  0  0  0  0  0  0  0  0  0  0
   50.4784   -2.7196   -8.2250 O   0  0  0  0  0  0  0  0  0  0  0  0
   49.7143   -3.4692   -7.3365 C   0  0  0  0  0  0  0  0  0  0  0  0
   50.0970   -1.8515   -8.4501 H   0  0  0  0  0  0  0  0  0  0  0  0
 12 13  1  0  0  0
 13  1  1  0  0  0
  1  2  1  0  0  0
  2  3  1  0  0  0
  3  4  1  0  0  0
  3  5  1  0  0  0
  5  6  1  0  0  0
  5  7  1  0  0  0
  7  8  1  0  0  0
  7  1  1  0  0  0
 12 14  1  0  0  0
  4  9  1  0  0  0
  6 10  1  0  0  0
  8 11  1  0  0  0
M  END
> <minimizedAffinity>
-4.36620

> <CNNscore>
0.5871294141

> <CNNaffinity>
3.1502254009

> <CNN_VS>
1.8495899439

> <CNNaffinity_variance>
0.1861617416

$$$$
[H]OC([H])([H])[C@@]1([H])O[C@@]([H])(O[H])[C@]([H])(O[H])[C@@]1([H])O[H]


 14 14  0  0  0  0  0  0  0  0999 V2000
   51.7813   -4.5461   -6.7392 C   0  0  0  0  0  0  0  0  0  0  0  0
   52.3577   -4.3362   -7.9688 O   0  0  0  0  0  0  0  0  0  0  0  0
   52.2328   -2.9675   -8.2572 C   0  0  0  0  0  0  0  0  0  0  0  0
   52.4579   -2.6813   -9.5671 O   0  0  0  0  0  0  0  0  0  0  0  0
   50.7649   -2.7698   -7.8531 C   0  0  0  0  0  0  0  0  0  0  0  0
   50.4098   -1.4418   -7.8431 O   0  0  0  0  0  0  0  0  0  0  0  0
   50.8493   -3.3804   -6.4702 C   0  0  0  0  0  0  0  0  0  0  0  0
   49.6445   -3.7441   -5.9472 O   0  0  0  0  0  0  0  0  0  0  0  0
   53.1309   -1.9423   -9.6115 H   0  0  0  0  0  0  0  0  0  0  0  0
   50.7835   -0.9335   -7.1096 H   0  0  0  0  0  0  0  0  0  0  0  0
   49.5803   -3.3593   -5.0187 H   0  0  0  0  0  0  0  0  0  0  0  0
   50.7962   -6.3339   -5.4515 O   0  0  0  0  0  0  0  0  0  0  0  0
   50.9186   -5.8083   -6.7338 C   0  0  0  0  0  0  0  0  0  0  0  0
   51.3588   -7.1110   -5.2801 H   0  0  0  0  0  0  0  0  0  0  0  0
 12 13  1  0  0  0
 13  1  1  0  0  0
  1  2  1  0  0  0
  2  3  1  0  0  0
  3  4  1  0  0  0
  3  5  1  0  0  0
  5  6  1  0  0  0
  5  7  1  0  0  0
  7  8  1  0  0  0
  7  1  1  0  0  0
 12 14  1  0  0  0
  4  9  1  0  0  0
  6 10  1  0  0  0
  8 11  1  0  0  0
M  END
> <minimizedAffinity>
-4.72323

> <CNNscore>
0.5275332928

> <CNNaffinity>
3.0178501606

> <CNN_VS>
1.5920164585

> <CNNaffinity_variance>
0.1626318991

$$$$
[H]OC([H])([H])[C@@]1([H])O[C@@]([H])(O[H])[C@]([H])(O[H])[C@@]1([H])O[H]


 14 14  0  0  0  0  0  0  0  0999 V2000
   49.2162   -3.1304   -6.3052 C   0  0  0  0  0  0  0  0  0  0  0  0
   49.8214   -2.1289   -7.0256 O   0  0  0  0  0  0  0  0  0  0  0  0
   50.7554   -2.7382   -7.8791 C   0  0  0  0  0  0  0  0  0  0  0  0
   51.6477   -1.8554   -8.4016 O   0  0  0  0  0  0  0  0  0  0  0  0
   51.4001   -3.7068   -6.8774 C   0  0  0  0  0  0  0  0  0  0  0  0
   52.2426   -4.5994   -7.4962 O   0  0  0  0  0  0  0  0  0  0  0  0
   50.1272   -4.3415   -6.3583 C   0  0  0  0  0  0  0  0  0  0  0  0
   50.2702   -4.9796   -5.1625 O   0  0  0  0  0  0  0  0  0  0  0  0
   51.6646   -1.9827   -9.3938 H   0  0  0  0  0  0  0  0  0  0  0  0
   51.7923   -5.2800   -8.0158 H   0  0  0  0  0  0  0  0  0  0  0  0
   49.8728   -5.9005   -5.2527 H   0  0  0  0  0  0  0  0  0  0  0  0
   47.7429   -2.5432   -4.4861 O   0  0  0  0  0  0  0  0  0  0  0  0
   49.0744   -2.7518   -4.8307 C   0  0  0  0  0  0  0  0  0  0  0  0
   47.4882   -1.6052   -4.4147 H   0  0  0  0  0  0  0  0  0  0  0  0
 12 13  1  0  0  0
 13  1  1  0  0  0
  1  2  1  0  0  0
  2  3  1  0  0  0
  3  4  1  0  0  0
  3  5  1  0  0  0
  5  6  1  0  0  0
  5  7  1  0  0  0
  7  8  1  0  0  0
  7  1  1  0  0  0
 12 14  1  0  0  0
  4  9  1  0  0  0
  6 10  1  0  0  0
  8 11  1  0  0  0
M  END
> <minimizedAffinity>
-4.80340

> <CNNscore>
0.5260501504

> <CNNaffinity>
3.1134686470

> <CNN_VS>
1.6378406286

> <CNNaffinity_variance>
0.3040284812

$$$$
[H]OC([H])([H])[C@@]1([H])O[C@@]([H])(O[H])[C@]([H])(O[H])[C@@]1([H])O[H]


 14 14  0  0  0  0  0  0  0  0999 V2000
   50.6302   -5.1179   -6.0840 C   0  0  0  0  0  0  0  0  0  0  0  0
   50.4337   -5.6025   -4.8132 O   0  0  0  0  0  0  0  0  0  0  0  0
   49.3104   -4.9439   -4.2872 C   0  0  0  0  0  0  0  0  0  0  0  0
   49.2023   -5.0794   -2.9388 O   0  0  0  0  0  0  0  0  0  0  0  0
   49.6531   -3.5086   -4.7111 C   0  0  0  0  0  0  0  0  0  0  0  0
   48.6049   -2.6458   -4.4956 O   0  0  0  0  0  0  0  0  0  0  0  0
   49.9134   -3.7848   -6.1769 C   0  0  0  0  0  0  0  0  0  0  0  0
   50.6310   -2.8132   -6.8081 O   0  0  0  0  0  0  0  0  0  0  0  0
   48.2760   -5.3964   -2.7326 H   0  0  0  0  0  0  0  0  0  0  0  0
   47.8642   -2.7555   -5.1082 H   0  0  0  0  0  0  0  0  0  0  0  0
   50.1424   -2.5661   -7.6534 H   0  0  0  0  0  0  0  0  0  0  0  0
   52.4184   -5.0074   -7.7009 O   0  0  0  0  0  0  0  0  0  0  0  0
   52.1092   -4.8411   -6.3548 C   0  0  0  0  0  0  0  0  0  0  0  0
   52.8727   -5.8442   -7.9087 H   0  0  0  0  0  0  0  0  0  0  0  0
 12 13  1  0  0  0
 13  1  1  0  0  0
  1  2  1  0  0  0
  2  3  1  0  0  0
  3  4  1  0  0  0
  3  5  1  0  0  0
  5  6  1  0  0  0
  5  7  1  0  0  0
  7  8  1  0  0  0
  7  1  1  0  0  0
 12 14  1  0  0  0
  4  9  1  0  0  0
  6 10  1  0  0  0
  8 11  1  0  0  0
M  END
> <minimizedAffinity>
-4.32091

> <CNNscore>
0.5057165623

> <CNNaffinity>
3.0003046989

> <CNN_VS>
1.5173038244

> <CNNaffinity_variance>
0.2213750780

$$$$
[H]OC([H])([H])[C@@]1([H])O[C@@]([H])(O[H])[C@]([H])(O[H])[C@@]1([H])O[H]


 14 14  0  0  0  0  0  0  0  0999 V2000
   50.7111   -4.4746   -6.9919 C   0  0  0  0  0  0  0  0  0  0  0  0
   51.9580   -4.9942   -7.2442 O   0  0  0  0  0  0  0  0  0  0  0  0
   52.1478   -6.0663   -6.3574 C   0  0  0  0  0  0  0  0  0  0  0  0
   53.4477   -6.4550   -6.2694 O   0  0  0  0  0  0  0  0  0  0  0  0
   51.6407   -5.4044   -5.0682 C   0  0  0  0  0  0  0  0  0  0  0  0
   51.5216   -6.3085   -4.0396 O   0  0  0  0  0  0  0  0  0  0  0  0
   50.3087   -4.9175   -5.5985 C   0  0  0  0  0  0  0  0  0  0  0  0
   49.7363   -3.9339   -4.8487 O   0  0  0  0  0  0  0  0  0  0  0  0
   53.4856   -7.4443   -6.4134 H   0  0  0  0  0  0  0  0  0  0  0  0
   50.7812   -6.9244   -4.1323 H   0  0  0  0  0  0  0  0  0  0  0  0
   48.7825   -4.1994   -4.6645 H   0  0  0  0  0  0  0  0  0  0  0  0
   49.5370   -2.4157   -7.4466 O   0  0  0  0  0  0  0  0  0  0  0  0
   50.7344   -2.9460   -6.9773 C   0  0  0  0  0  0  0  0  0  0  0  0
   49.5760   -2.0827   -8.3617 H   0  0  0  0  0  0  0  0  0  0  0  0
 12 13  1  0  0  0
 13  1  1  0  0  0
  1  2  1  0  0  0
  2  3  1  0  0  0
  3  4  1  0  0  0
  3  5  1  0  0  0
  5  6  1  0  0  0
  5  7  1  0  0  0
  7  8  1  0  0  0
  7  1  1  0  0  0
 12 14  1  0  0  0
  4  9  1  0  0  0
  6 10  1  0  0  0
  8 11  1  0  0  0
M  END
> <minimizedAffinity>
-4.13967

> <CNNscore>
0.5033016205

> <CNNaffinity>
3.0152707100

> <CNN_VS>
1.5175906420

> <CNNaffinity_variance>
0.2127770931

$$$$
[H]OC([H])([H])[C@@]1([H])O[C@@]([H])(O[H])[C@]([H])(O[H])[C@@]1([H])O[H]


 14 14  0  0  0  0  0  0  0  0999 V2000
   51.5262   -3.4394   -7.1023 C   0  0  0  0  0  0  0  0  0  0  0  0
   52.0054   -4.6846   -6.7735 O   0  0  0  0  0  0  0  0  0  0  0  0
   53.3055   -4.7799   -7.2959 C   0  0  0  0  0  0  0  0  0  0  0  0
   53.7669   -6.0582   -7.3336 O   0  0  0  0  0  0  0  0  0  0  0  0
   53.0449   -4.2044   -8.6952 C   0  0  0  0  0  0  0  0  0  0  0  0
   54.2131   -3.9869   -9.3864 O   0  0  0  0  0  0  0  0  0  0  0  0
   52.3532   -2.9278   -8.2659 C   0  0  0  0  0  0  0  0  0  0  0  0
   51.6186   -2.3344   -9.2486 O   0  0  0  0  0  0  0  0  0  0  0  0
   54.6654   -6.0763   -6.8940 H   0  0  0  0  0  0  0  0  0  0  0  0
   54.7333   -3.2366   -9.0663 H   0  0  0  0  0  0  0  0  0  0  0  0
   51.8797   -1.3625   -9.2873 H   0  0  0  0  0  0  0  0  0  0  0  0
   49.4514   -2.2696   -7.4912 O   0  0  0  0  0  0  0  0  0  0  0  0
   50.0784   -3.5075   -7.5889 C   0  0  0  0  0  0  0  0  0  0  0  0
   48.8487   -2.1830   -6.7303 H   0  0  0  0  0  0  0  0  0  0  0  0
 12 13  1  0  0  0
 13  1  1  0  0  0
  1  2  1  0  0  0
  2  3  1  0  0  0
  3  4  1  0  0  0
  3  5  1  0  0  0
  5  6  1  0  0  0
  5  7  1  0  0  0
  7  8  1  0  0  0
  7  1  1  0  0  0
 12 14  1  0  0  0
  4  9  1  0  0  0
  6 10  1  0  0  0
  8 11  1  0  0  0
M  END
> <minimizedAffinity>
-4.65872

> <CNNscore>
0.4794176817

> <CNNaffinity>
2.9233934879

> <CNN_VS>
1.4015265703

> <CNNaffinity_variance>
0.1276279986

$$$$
[H]OC([H])([H])[C@@]1([H])O[C@@]([H])(O[H])[C@]([H])(O[H])[C@@]1([H])O[H]


 14 14  0  0  0  0  0  0  0  0999 V2000
   49.9621   -3.9761   -6.6272 C   0  0  0  0  0  0  0  0  0  0  0  0
   50.8525   -4.9676   -6.2920 O   0  0  0  0  0  0  0  0  0  0  0  0
   50.3289   -5.6342   -5.1724 C   0  0  0  0  0  0  0  0  0  0  0  0
   51.2502   -6.4093   -4.5408 O   0  0  0  0  0  0  0  0  0  0  0  0
   49.9127   -4.4137   -4.3391 C   0  0  0  0  0  0  0  0  0  0  0  0
   49.1692   -4.7722   -3.2399 O   0  0  0  0  0  0  0  0  0  0  0  0
   49.1061   -3.7033   -5.4055 C   0  0  0  0  0  0  0  0  0  0  0  0
   48.8999   -2.3790   -5.1585 O   0  0  0  0  0  0  0  0  0  0  0  0
   50.8605   -7.3237   -4.4277 H   0  0  0  0  0  0  0  0  0  0  0  0
   48.2696   -5.0641   -3.4436 H   0  0  0  0  0  0  0  0  0  0  0  0
   47.9165   -2.1921   -5.2687 H   0  0  0  0  0  0  0  0  0  0  0  0
   49.8622   -1.8119   -7.6905 O   0  0  0  0  0  0  0  0  0  0  0  0
   50.6804   -2.6684   -6.9609 C   0  0  0  0  0  0  0  0  0  0  0  0
   50.0587   -1.7837   -8.6446 H   0  0  0  0  0  0  0  0  0  0  0  0
 12 13  1  0  0  0
 13  1  1  0  0  0
  1  2  1  0  0  0
  2  3  1  0  0  0
  3  4  1  0  0  0
  3  5  1  0  0  0
  5  6  1  0  0  0
  5  7  1  0  0  0
  7  8  1  0  0  0
  7  1  1  0  0  0
 12 14  1  0  0  0
  4  9  1  0  0  0
  6 10  1  0  0  0
  8 11  1  0  0  0
M  END
> <minimizedAffinity>
-4.26809

> <CNNscore>
0.4721936882

> <CNNaffinity>
2.9747385979

> <CNN_VS>
1.4046528339

> <CNNaffinity_variance>
0.3459376097

$$$$
[H]OC([H])([H])[C@@]1([H])O[C@@]([H])(O[H])[C@]([H])(O[H])[C@@]1([H])O[H]


 14 14  0  0  0  0  0  0  0  0999 V2000
   56.8164   -3.7153  -11.9863 C   0  0  0  0  0  0  0  0  0  0  0  0
   55.8011   -4.0373  -11.1180 O   0  0  0  0  0  0  0  0  0  0  0  0
   56.3755   -4.1860   -9.8451 C   0  0  0  0  0  0  0  0  0  0  0  0
   55.5549   -4.8206   -8.9664 O   0  0  0  0  0  0  0  0  0  0  0  0
   57.5969   -5.0329  -10.2302 C   0  0  0  0  0  0  0  0  0  0  0  0
   58.4761   -5.1716   -9.1826 O   0  0  0  0  0  0  0  0  0  0  0  0
   58.1192   -4.1459  -11.3405 C   0  0  0  0  0  0  0  0  0  0  0  0
   58.9803   -4.7693  -12.1933 O   0  0  0  0  0  0  0  0  0  0  0  0
   55.4986   -4.2635   -8.1373 H   0  0  0  0  0  0  0  0  0  0  0  0
   58.9746   -4.3701   -8.9702 H   0  0  0  0  0  0  0  0  0  0  0  0
   59.7992   -4.1904  -12.2856 H   0  0  0  0  0  0  0  0  0  0  0  0
   57.4290   -3.8856  -14.3144 O   0  0  0  0  0  0  0  0  0  0  0  0
   56.6985   -4.4922  -13.2977 C   0  0  0  0  0  0  0  0  0  0  0  0
   56.8910   -3.3754  -14.9468 H   0  0  0  0  0  0  0  0  0  0  0  0
 12 13  1  0  0  0
 13  1  1  0  0  0
  1  2  1  0  0  0
  2  3  1  0  0  0
  3  4  1  0  0  0
  3  5  1  0  0  0
  5  6  1  0  0  0
  5  7  1  0  0  0
  7  8  1  0  0  0
  7  1  1  0  0  0
 12 14  1  0  0  0
  4  9  1  0  0  0
  6 10  1  0  0  0
  8 11  1  0  0  0
M  END
> <minimizedAffinity>
-4.07990

> <CNNscore>
0.4703094661

> <CNNaffinity>
2.5916402340

> <CNN_VS>
1.2188729048

> <CNNaffinity_variance>
0.1349263936

$$$$
[H]OC([H])([H])[C@@]1([H])O[C@@]([H])(O[H])[C@]([H])(O[H])[C@@]1([H])O[H]


 14 14  0  0  0  0  0  0  0  0999 V2000
   52.9228   -4.0800   -8.3133 C   0  0  0  0  0  0  0  0  0  0  0  0
   52.8158   -4.6610   -7.0726 O   0  0  0  0  0  0  0  0  0  0  0  0
   51.4634   -4.5967   -6.6998 C   0  0  0  0  0  0  0  0  0  0  0  0
   51.2694   -4.8299   -5.3745 O   0  0  0  0  0  0  0  0  0  0  0  0
   51.1751   -3.1405   -7.0918 C   0  0  0  0  0  0  0  0  0  0  0  0
   49.8344   -2.8454   -7.0195 O   0  0  0  0  0  0  0  0  0  0  0  0
   51.7019   -3.2022   -8.5100 C   0  0  0  0  0  0  0  0  0  0  0  0
   51.9778   -1.9842   -9.0554 O   0  0  0  0  0  0  0  0  0  0  0  0
   50.5657   -5.5352   -5.2838 H   0  0  0  0  0  0  0  0  0  0  0  0
   49.2989   -3.2441   -7.7197 H   0  0  0  0  0  0  0  0  0  0  0  0
   51.5336   -1.9405   -9.9582 H   0  0  0  0  0  0  0  0  0  0  0  0
   54.5941   -3.0372   -9.7076 O   0  0  0  0  0  0  0  0  0  0  0  0
   54.1421   -3.1615   -8.3978 C   0  0  0  0  0  0  0  0  0  0  0  0
   55.3861   -3.5670   -9.9117 H   0  0  0  0  0  0  0  0  0  0  0  0
 12 13  1  0  0  0
 13  1  1  0  0  0
  1  2  1  0  0  0
  2  3  1  0  0  0
  3  4  1  0  0  0
  3  5  1  0  0  0
  5  6  1  0  0  0
  5  7  1  0  0  0
  7  8  1  0  0  0
  7  1  1  0  0  0
 12 14  1  0  0  0
  4  9  1  0  0  0
  6 10  1  0  0  0
  8 11  1  0  0  0
M  END
> <minimizedAffinity>
-4.61468

> <CNNscore>
0.4661064148

> <CNNaffinity>
2.8973760605

> <CNN_VS>
1.3504855633

> <CNNaffinity_variance>
0.1222908497

$$$$
