[H]Oc1c([H])c([H])c(C([H])=C2C(=O)N([H])C([H])([H])C([H])([H])N2c2c([H])nc([H])c([H])c2[H])c(C([H])([H])N2C([H])([H])C([H])([H])C([H])([H])[C@]2([H])c2c([H])c([H])c([H])c([H])c2[H])c1Br


 36 40  0  0  0  0  0  0  0  0999 V2000
   58.4886   -4.9453   -7.9506 Br  0  0  0  0  0  0  0  0  0  0  0  0
   56.7241   -4.6439   -8.6635 C   0  0  0  0  0  0  0  0  0  0  0  0
   56.5030   -4.5321   -9.9916 C   0  0  0  0  0  0  0  0  0  0  0  0
   57.5471   -4.6286  -10.9155 O   0  0  0  0  0  0  0  0  0  0  0  0
   55.2309   -4.3168  -10.4934 C   0  0  0  0  0  0  0  0  0  0  0  0
   54.1833   -4.2162   -9.6219 C   0  0  0  0  0  0  0  0  0  0  0  0
   54.3791   -4.3291   -8.2056 C   0  0  0  0  0  0  0  0  0  0  0  0
   55.6122   -4.5377   -7.7385 C   0  0  0  0  0  0  0  0  0  0  0  0
   58.4661   -4.7847  -10.5796 H   0  0  0  0  0  0  0  0  0  0  0  0
   53.1663   -4.1837   -7.4160 C   0  0  0  0  0  0  0  0  0  0  0  0
   52.2684   -3.2818   -7.7046 C   0  0  0  0  0  0  0  0  0  0  0  0
   51.0889   -3.1966   -6.8968 N   0  0  0  0  0  0  0  0  0  0  0  0
   50.3704   -1.9319   -6.7620 C   0  0  0  0  0  0  0  0  0  0  0  0
   50.2303   -1.2687   -8.1113 C   0  0  0  0  0  0  0  0  0  0  0  0
   51.3688   -1.3446   -8.9474 N   0  0  0  0  0  0  0  0  0  0  0  0
   52.3875   -2.3018   -8.7690 C   0  0  0  0  0  0  0  0  0  0  0  0
   53.4056   -2.3199   -9.5214 O   0  0  0  0  0  0  0  0  0  0  0  0
   51.4537   -0.6396   -9.7450 H   0  0  0  0  0  0  0  0  0  0  0  0
   50.5704   -4.3258   -6.2658 C   0  0  0  0  0  0  0  0  0  0  0  0
   50.6372   -5.5336   -6.9244 C   0  0  0  0  0  0  0  0  0  0  0  0
   50.1776   -6.7074   -6.3444 C   0  0  0  0  0  0  0  0  0  0  0  0
   49.6435   -6.6460   -5.0759 C   0  0  0  0  0  0  0  0  0  0  0  0
   49.5757   -5.4750   -4.4300 N   0  0  0  0  0  0  0  0  0  0  0  0
   50.0334   -4.3244   -5.0154 C   0  0  0  0  0  0  0  0  0  0  0  0
   56.0612   -4.6473   -6.3811 C   0  0  0  0  0  0  0  0  0  0  0  0
   55.7442   -5.6700   -5.4891 N   0  0  0  0  0  0  0  0  0  0  0  0
   56.4123   -6.9304   -5.7424 C   0  0  0  0  0  0  0  0  0  0  0  0
   57.5656   -7.0142   -4.7301 C   0  0  0  0  0  0  0  0  0  0  0  0
   57.0505   -6.2507   -3.5542 C   0  0  0  0  0  0  0  0  0  0  0  0
   56.0780   -5.2611   -4.1202 C   0  0  0  0  0  0  0  0  0  0  0  0
   54.8658   -5.2847   -3.3010 C   0  0  0  0  0  0  0  0  0  0  0  0
   53.6889   -5.7001   -3.9384 C   0  0  0  0  0  0  0  0  0  0  0  0
   52.4957   -5.7236   -3.2554 C   0  0  0  0  0  0  0  0  0  0  0  0
   52.4557   -5.3335   -1.9262 C   0  0  0  0  0  0  0  0  0  0  0  0
   53.6200   -4.9378   -1.3445 C   0  0  0  0  0  0  0  0  0  0  0  0
   54.8494   -4.8974   -1.9927 C   0  0  0  0  0  0  0  0  0  0  0  0
  1  2  1  0  0  0
  2  3  2  0  0  0
  3  4  1  0  0  0
  3  5  1  0  0  0
  5  6  2  0  0  0
  6  7  1  0  0  0
  7 10  1  0  0  0
 10 11  2  0  0  0
 11 12  1  0  0  0
 12 13  1  0  0  0
 13 14  1  0  0  0
 14 15  1  0  0  0
 15 16  1  0  0  0
 16 17  2  0  0  0
 12 19  1  0  0  0
 19 20  2  0  0  0
 20 21  1  0  0  0
 21 22  2  0  0  0
 22 23  1  0  0  0
 23 24  2  0  0  0
  7  8  2  0  0  0
  8 25  1  0  0  0
 25 26  1  0  0  0
 26 27  1  0  0  0
 27 28  1  0  0  0
 28 29  1  0  0  0
 29 30  1  0  0  0
 30 31  1  0  0  0
 31 32  2  0  0  0
 32 33  1  0  0  0
 33 34  2  0  0  0
 34 35  1  0  0  0
 35 36  2  0  0  0
  8  2  1  0  0  0
 30 26  1  0  0  0
 36 31  1  0  0  0
 16 11  1  0  0  0
 24 19  1  0  0  0
  4  9  1  0  0  0
 15 18  1  0  0  0
M  END
> <minimizedAffinity>
-5.02772

> <CNNscore>
0.5256347060

> <CNNaffinity>
7.6165475845

> <CNN_VS>
4.0035219193

> <CNNaffinity_variance>
0.4614799619

$$$$
[H]Oc1c([H])c([H])c(C([H])=C2C(=O)N([H])C([H])([H])C([H])([H])N2c2c([H])nc([H])c([H])c2[H])c(C([H])([H])N2C([H])([H])C([H])([H])C([H])([H])[C@]2([H])c2c([H])c([H])c([H])c([H])c2[H])c1Br


 36 40  0  0  0  0  0  0  0  0999 V2000
   57.8036   -4.9865   -8.2842 Br  0  0  0  0  0  0  0  0  0  0  0  0
   55.9277   -4.6122   -8.5154 C   0  0  0  0  0  0  0  0  0  0  0  0
   55.4055   -4.3147   -9.7253 C   0  0  0  0  0  0  0  0  0  0  0  0
   56.2037   -4.2624  -10.8713 O   0  0  0  0  0  0  0  0  0  0  0  0
   54.0558   -4.0486   -9.8806 C   0  0  0  0  0  0  0  0  0  0  0  0
   53.2422   -4.0894   -8.7836 C   0  0  0  0  0  0  0  0  0  0  0  0
   53.7603   -4.4010   -7.4830 C   0  0  0  0  0  0  0  0  0  0  0  0
   55.0640   -4.6561   -7.3511 C   0  0  0  0  0  0  0  0  0  0  0  0
   57.1724   -4.4514  -10.7848 H   0  0  0  0  0  0  0  0  0  0  0  0
   52.7677   -4.3882   -6.4199 C   0  0  0  0  0  0  0  0  0  0  0  0
   51.5654   -3.9198   -6.6147 C   0  0  0  0  0  0  0  0  0  0  0  0
   50.6288   -3.9463   -5.5318 N   0  0  0  0  0  0  0  0  0  0  0  0
   49.5453   -2.9689   -5.4623 C   0  0  0  0  0  0  0  0  0  0  0  0
   48.8998   -2.8131   -6.8185 C   0  0  0  0  0  0  0  0  0  0  0  0
   49.7900   -2.7987   -7.9176 N   0  0  0  0  0  0  0  0  0  0  0  0
   51.0995   -3.3148   -7.8495 C   0  0  0  0  0  0  0  0  0  0  0  0
   51.8766   -3.2581   -8.8474 O   0  0  0  0  0  0  0  0  0  0  0  0
   49.4476   -2.3733   -8.8353 H   0  0  0  0  0  0  0  0  0  0  0  0
   50.6963   -4.9340   -4.5510 C   0  0  0  0  0  0  0  0  0  0  0  0
   50.2522   -4.6303   -3.2830 C   0  0  0  0  0  0  0  0  0  0  0  0
   50.2518   -5.5729   -2.2647 C   0  0  0  0  0  0  0  0  0  0  0  0
   50.7107   -6.8412   -2.5458 C   0  0  0  0  0  0  0  0  0  0  0  0
   51.1437   -7.1431   -3.7763 N   0  0  0  0  0  0  0  0  0  0  0  0
   51.1382   -6.2021   -4.7716 C   0  0  0  0  0  0  0  0  0  0  0  0
   55.8147   -4.9524   -6.1658 C   0  0  0  0  0  0  0  0  0  0  0  0
   55.3689   -5.6926   -5.0725 N   0  0  0  0  0  0  0  0  0  0  0  0
   54.4493   -6.7647   -5.3948 C   0  0  0  0  0  0  0  0  0  0  0  0
   55.2754   -8.0603   -5.3653 C   0  0  0  0  0  0  0  0  0  0  0  0
   56.3306   -7.7751   -4.3473 C   0  0  0  0  0  0  0  0  0  0  0  0
   56.5123   -6.2878   -4.3717 C   0  0  0  0  0  0  0  0  0  0  0  0
   56.5371   -5.8030   -2.9914 C   0  0  0  0  0  0  0  0  0  0  0  0
   55.2940   -5.6240   -2.3695 C   0  0  0  0  0  0  0  0  0  0  0  0
   55.2193   -5.1419   -1.0840 C   0  0  0  0  0  0  0  0  0  0  0  0
   56.3819   -4.8301   -0.3971 C   0  0  0  0  0  0  0  0  0  0  0  0
   57.5678   -5.0187   -1.0362 C   0  0  0  0  0  0  0  0  0  0  0  0
   57.6942   -5.5034   -2.3333 C   0  0  0  0  0  0  0  0  0  0  0  0
  1  2  1  0  0  0
  2  3  2  0  0  0
  3  4  1  0  0  0
  3  5  1  0  0  0
  5  6  2  0  0  0
  6  7  1  0  0  0
  7 10  1  0  0  0
 10 11  2  0  0  0
 11 12  1  0  0  0
 12 13  1  0  0  0
 13 14  1  0  0  0
 14 15  1  0  0  0
 15 16  1  0  0  0
 16 17  2  0  0  0
 12 19  1  0  0  0
 19 20  2  0  0  0
 20 21  1  0  0  0
 21 22  2  0  0  0
 22 23  1  0  0  0
 23 24  2  0  0  0
  7  8  2  0  0  0
  8 25  1  0  0  0
 25 26  1  0  0  0
 26 27  1  0  0  0
 27 28  1  0  0  0
 28 29  1  0  0  0
 29 30  1  0  0  0
 30 31  1  0  0  0
 31 32  2  0  0  0
 32 33  1  0  0  0
 33 34  2  0  0  0
 34 35  1  0  0  0
 35 36  2  0  0  0
  8  2  1  0  0  0
 30 26  1  0  0  0
 36 31  1  0  0  0
 16 11  1  0  0  0
 24 19  1  0  0  0
  4  9  1  0  0  0
 15 18  1  0  0  0
M  END
> <minimizedAffinity>
-8.07984

> <CNNscore>
0.4834844768

> <CNNaffinity>
7.5853819847

> <CNN_VS>
3.6674144268

> <CNNaffinity_variance>
0.1768748462

$$$$
[H]Oc1c([H])c([H])c(C([H])=C2C(=O)N([H])C([H])([H])C([H])([H])N2c2c([H])nc([H])c([H])c2[H])c(C([H])([H])N2C([H])([H])C([H])([H])C([H])([H])[C@]2([H])c2c([H])c([H])c([H])c([H])c2[H])c1Br


 36 40  0  0  0  0  0  0  0  0999 V2000
   54.8718   -4.8979   -8.4600 Br  0  0  0  0  0  0  0  0  0  0  0  0
   56.6779   -4.9247   -9.1308 C   0  0  0  0  0  0  0  0  0  0  0  0
   57.0078   -4.3514  -10.3088 C   0  0  0  0  0  0  0  0  0  0  0  0
   56.0516   -3.7102  -11.1010 O   0  0  0  0  0  0  0  0  0  0  0  0
   58.3090   -4.3753  -10.7810 C   0  0  0  0  0  0  0  0  0  0  0  0
   59.2729   -4.9932  -10.0353 C   0  0  0  0  0  0  0  0  0  0  0  0
   58.9607   -5.6132   -8.7802 C   0  0  0  0  0  0  0  0  0  0  0  0
   57.7011   -5.5800   -8.3390 C   0  0  0  0  0  0  0  0  0  0  0  0
   55.1140   -3.6786  -10.7822 H   0  0  0  0  0  0  0  0  0  0  0  0
   60.0945   -6.2399   -8.1190 C   0  0  0  0  0  0  0  0  0  0  0  0
   60.6581   -7.3131   -8.6020 C   0  0  0  0  0  0  0  0  0  0  0  0
   61.7795   -7.8761   -7.9118 N   0  0  0  0  0  0  0  0  0  0  0  0
   62.0745   -9.3031   -8.0132 C   0  0  0  0  0  0  0  0  0  0  0  0
   61.9565   -9.7563   -9.4487 C   0  0  0  0  0  0  0  0  0  0  0  0
   60.8703   -9.2100  -10.1715 N   0  0  0  0  0  0  0  0  0  0  0  0
   60.2052   -8.0310   -9.7798 C   0  0  0  0  0  0  0  0  0  0  0  0
   59.2182   -7.5886  -10.4378 O   0  0  0  0  0  0  0  0  0  0  0  0
   60.5441   -9.7216  -11.0503 H   0  0  0  0  0  0  0  0  0  0  0  0
   62.6436   -7.0699   -7.1731 C   0  0  0  0  0  0  0  0  0  0  0  0
   62.7221   -7.2677   -5.8122 C   0  0  0  0  0  0  0  0  0  0  0  0
   63.5878   -6.5310   -5.0165 C   0  0  0  0  0  0  0  0  0  0  0  0
   64.3829   -5.5808   -5.6189 C   0  0  0  0  0  0  0  0  0  0  0  0
   64.3117   -5.3835   -6.9415 N   0  0  0  0  0  0  0  0  0  0  0  0
   63.4522   -6.1185   -7.7142 C   0  0  0  0  0  0  0  0  0  0  0  0
   57.1417   -6.1525   -7.1493 C   0  0  0  0  0  0  0  0  0  0  0  0
   57.2529   -5.6400   -5.8582 N   0  0  0  0  0  0  0  0  0  0  0  0
   56.4685   -4.4487   -5.6042 C   0  0  0  0  0  0  0  0  0  0  0  0
   55.2243   -4.9124   -4.8305 C   0  0  0  0  0  0  0  0  0  0  0  0
   55.7136   -6.0995   -4.0673 C   0  0  0  0  0  0  0  0  0  0  0  0
   56.8434   -6.6545   -4.8804 C   0  0  0  0  0  0  0  0  0  0  0  0
   57.9632   -6.9376   -3.9821 C   0  0  0  0  0  0  0  0  0  0  0  0
   57.8873   -6.3864   -2.6959 C   0  0  0  0  0  0  0  0  0  0  0  0
   58.9086   -6.5736   -1.7945 C   0  0  0  0  0  0  0  0  0  0  0  0
   60.0223   -7.3131   -2.1600 C   0  0  0  0  0  0  0  0  0  0  0  0
   60.0566   -7.8312   -3.4172 C   0  0  0  0  0  0  0  0  0  0  0  0
   59.0499   -7.6698   -4.3626 C   0  0  0  0  0  0  0  0  0  0  0  0
  1  2  1  0  0  0
  2  3  2  0  0  0
  3  4  1  0  0  0
  3  5  1  0  0  0
  5  6  2  0  0  0
  6  7  1  0  0  0
  7 10  1  0  0  0
 10 11  2  0  0  0
 11 12  1  0  0  0
 12 13  1  0  0  0
 13 14  1  0  0  0
 14 15  1  0  0  0
 15 16  1  0  0  0
 16 17  2  0  0  0
 12 19  1  0  0  0
 19 20  2  0  0  0
 20 21  1  0  0  0
 21 22  2  0  0  0
 22 23  1  0  0  0
 23 24  2  0  0  0
  7  8  2  0  0  0
  8 25  1  0  0  0
 25 26  1  0  0  0
 26 27  1  0  0  0
 27 28  1  0  0  0
 28 29  1  0  0  0
 29 30  1  0  0  0
 30 31  1  0  0  0
 31 32  2  0  0  0
 32 33  1  0  0  0
 33 34  2  0  0  0
 34 35  1  0  0  0
 35 36  2  0  0  0
  8  2  1  0  0  0
 30 26  1  0  0  0
 36 31  1  0  0  0
 16 11  1  0  0  0
 24 19  1  0  0  0
  4  9  1  0  0  0
 15 18  1  0  0  0
M  END
> <minimizedAffinity>
-2.91119

> <CNNscore>
0.4817846417

> <CNNaffinity>
6.4092421532

> <CNN_VS>
3.0878744125

> <CNNaffinity_variance>
0.2970129848

$$$$
[H]Oc1c([H])c([H])c(C([H])=C2C(=O)N([H])C([H])([H])C([H])([H])N2c2c([H])nc([H])c([H])c2[H])c(C([H])([H])N2C([H])([H])C([H])([H])C([H])([H])[C@]2([H])c2c([H])c([H])c([H])c([H])c2[H])c1Br


 36 40  0  0  0  0  0  0  0  0999 V2000
   53.3986   -3.2956   -8.9567 Br  0  0  0  0  0  0  0  0  0  0  0  0
   54.9995   -3.9489   -8.1063 C   0  0  0  0  0  0  0  0  0  0  0  0
   56.1579   -4.0933   -8.7862 C   0  0  0  0  0  0  0  0  0  0  0  0
   56.2511   -3.7761  -10.1441 O   0  0  0  0  0  0  0  0  0  0  0  0
   57.3028   -4.5624   -8.1652 C   0  0  0  0  0  0  0  0  0  0  0  0
   57.2521   -4.8839   -6.8381 C   0  0  0  0  0  0  0  0  0  0  0  0
   56.0404   -4.7443   -6.0835 C   0  0  0  0  0  0  0  0  0  0  0  0
   54.9457   -4.2895   -6.6976 C   0  0  0  0  0  0  0  0  0  0  0  0
   55.4449   -3.4364  -10.6092 H   0  0  0  0  0  0  0  0  0  0  0  0
   56.1495   -5.1431   -4.6891 C   0  0  0  0  0  0  0  0  0  0  0  0
   55.8433   -6.3500   -4.2987 C   0  0  0  0  0  0  0  0  0  0  0  0
   55.9840   -6.6858   -2.9136 N   0  0  0  0  0  0  0  0  0  0  0  0
   55.1558   -7.7291   -2.3141 C   0  0  0  0  0  0  0  0  0  0  0  0
   55.0951   -8.9311   -3.2261 C   0  0  0  0  0  0  0  0  0  0  0  0
   54.9727   -8.6423   -4.6054 N   0  0  0  0  0  0  0  0  0  0  0  0
   55.3131   -7.3921   -5.1593 C   0  0  0  0  0  0  0  0  0  0  0  0
   55.1627   -7.1627   -6.3953 O   0  0  0  0  0  0  0  0  0  0  0  0
   54.6021   -9.4105   -5.2480 H   0  0  0  0  0  0  0  0  0  0  0  0
   56.9474   -6.0648   -2.1209 C   0  0  0  0  0  0  0  0  0  0  0  0
   57.3178   -4.7745   -2.4291 C   0  0  0  0  0  0  0  0  0  0  0  0
   58.2412   -4.0776   -1.6630 C   0  0  0  0  0  0  0  0  0  0  0  0
   58.7927   -4.7071   -0.5686 C   0  0  0  0  0  0  0  0  0  0  0  0
   58.4370   -5.9614   -0.2633 N   0  0  0  0  0  0  0  0  0  0  0  0
   57.5240   -6.6368   -1.0290 C   0  0  0  0  0  0  0  0  0  0  0  0
   53.6245   -4.1004   -6.1736 C   0  0  0  0  0  0  0  0  0  0  0  0
   52.7867   -5.0957   -5.6741 N   0  0  0  0  0  0  0  0  0  0  0  0
   52.6880   -5.1430   -4.2295 C   0  0  0  0  0  0  0  0  0  0  0  0
   51.3558   -4.4668   -3.8693 C   0  0  0  0  0  0  0  0  0  0  0  0
   50.4878   -4.7614   -5.0486 C   0  0  0  0  0  0  0  0  0  0  0  0
   51.4297   -4.9194   -6.2034 C   0  0  0  0  0  0  0  0  0  0  0  0
   51.0452   -6.1161   -6.9524 C   0  0  0  0  0  0  0  0  0  0  0  0
   51.9846   -6.6086   -7.8684 C   0  0  0  0  0  0  0  0  0  0  0  0
   51.6971   -7.7105   -8.6391 C   0  0  0  0  0  0  0  0  0  0  0  0
   50.4690   -8.3395   -8.5099 C   0  0  0  0  0  0  0  0  0  0  0  0
   49.5857   -7.8303   -7.6093 C   0  0  0  0  0  0  0  0  0  0  0  0
   49.8304   -6.7205   -6.8083 C   0  0  0  0  0  0  0  0  0  0  0  0
  1  2  1  0  0  0
  2  3  2  0  0  0
  3  4  1  0  0  0
  3  5  1  0  0  0
  5  6  2  0  0  0
  6  7  1  0  0  0
  7 10  1  0  0  0
 10 11  2  0  0  0
 11 12  1  0  0  0
 12 13  1  0  0  0
 13 14  1  0  0  0
 14 15  1  0  0  0
 15 16  1  0  0  0
 16 17  2  0  0  0
 12 19  1  0  0  0
 19 20  2  0  0  0
 20 21  1  0  0  0
 21 22  2  0  0  0
 22 23  1  0  0  0
 23 24  2  0  0  0
  7  8  2  0  0  0
  8 25  1  0  0  0
 25 26  1  0  0  0
 26 27  1  0  0  0
 27 28  1  0  0  0
 28 29  1  0  0  0
 29 30  1  0  0  0
 30 31  1  0  0  0
 31 32  2  0  0  0
 32 33  1  0  0  0
 33 34  2  0  0  0
 34 35  1  0  0  0
 35 36  2  0  0  0
  8  2  1  0  0  0
 30 26  1  0  0  0
 36 31  1  0  0  0
 16 11  1  0  0  0
 24 19  1  0  0  0
  4  9  1  0  0  0
 15 18  1  0  0  0
M  END
> <minimizedAffinity>
-0.53619

> <CNNscore>
0.3778082430

> <CNNaffinity>
6.9301538467

> <CNN_VS>
2.6182692051

> <CNNaffinity_variance>
0.3581358790

$$$$
[H]Oc1c([H])c([H])c(C([H])=C2C(=O)N([H])C([H])([H])C([H])([H])N2c2c([H])nc([H])c([H])c2[H])c(C([H])([H])N2C([H])([H])C([H])([H])C([H])([H])[C@]2([H])c2c([H])c([H])c([H])c([H])c2[H])c1Br


 36 40  0  0  0  0  0  0  0  0999 V2000
   53.6436   -3.3121   -9.8816 Br  0  0  0  0  0  0  0  0  0  0  0  0
   55.0973   -4.1496   -8.9339 C   0  0  0  0  0  0  0  0  0  0  0  0
   56.1877   -4.6213   -9.5771 C   0  0  0  0  0  0  0  0  0  0  0  0
   56.3137   -4.5257  -10.9656 O   0  0  0  0  0  0  0  0  0  0  0  0
   57.2273   -5.2202   -8.8863 C   0  0  0  0  0  0  0  0  0  0  0  0
   57.1413   -5.3331   -7.5273 C   0  0  0  0  0  0  0  0  0  0  0  0
   55.9994   -4.8446   -6.8100 C   0  0  0  0  0  0  0  0  0  0  0  0
   55.0063   -4.2687   -7.4914 C   0  0  0  0  0  0  0  0  0  0  0  0
   55.5830   -4.0988  -11.4809 H   0  0  0  0  0  0  0  0  0  0  0  0
   56.0557   -5.0552   -5.3719 C   0  0  0  0  0  0  0  0  0  0  0  0
   55.7209   -6.1969   -4.8360 C   0  0  0  0  0  0  0  0  0  0  0  0
   55.8099   -6.3465   -3.4146 N   0  0  0  0  0  0  0  0  0  0  0  0
   54.9485   -7.2940   -2.7117 C   0  0  0  0  0  0  0  0  0  0  0  0
   54.9036   -8.6061   -3.4577 C   0  0  0  0  0  0  0  0  0  0  0  0
   54.8320   -8.5024   -4.8666 N   0  0  0  0  0  0  0  0  0  0  0  0
   55.2071   -7.3398   -5.5691 C   0  0  0  0  0  0  0  0  0  0  0  0
   55.1019   -7.2757   -6.8291 O   0  0  0  0  0  0  0  0  0  0  0  0
   54.4738   -9.3462   -5.4144 H   0  0  0  0  0  0  0  0  0  0  0  0
   56.7536   -5.6335   -2.6775 C   0  0  0  0  0  0  0  0  0  0  0  0
   57.7980   -6.3257   -2.1054 C   0  0  0  0  0  0  0  0  0  0  0  0
   58.7968   -5.6800   -1.3907 C   0  0  0  0  0  0  0  0  0  0  0  0
   58.7274   -4.3104   -1.2591 C   0  0  0  0  0  0  0  0  0  0  0  0
   57.7148   -3.6313   -1.8128 N   0  0  0  0  0  0  0  0  0  0  0  0
   56.7360   -4.2825   -2.5156 C   0  0  0  0  0  0  0  0  0  0  0  0
   53.7621   -3.7427   -7.0102 C   0  0  0  0  0  0  0  0  0  0  0  0
   52.5049   -4.3205   -7.1761 N   0  0  0  0  0  0  0  0  0  0  0  0
   52.4422   -5.3715   -8.1713 C   0  0  0  0  0  0  0  0  0  0  0  0
   52.4535   -6.6975   -7.3944 C   0  0  0  0  0  0  0  0  0  0  0  0
   51.7808   -6.3502   -6.1068 C   0  0  0  0  0  0  0  0  0  0  0  0
   52.0439   -4.8889   -5.9045 C   0  0  0  0  0  0  0  0  0  0  0  0
   50.7898   -4.2437   -5.5146 C   0  0  0  0  0  0  0  0  0  0  0  0
   50.2998   -3.2562   -6.3799 C   0  0  0  0  0  0  0  0  0  0  0  0
   49.1444   -2.5744   -6.0785 C   0  0  0  0  0  0  0  0  0  0  0  0
   48.4585   -2.8652   -4.9099 C   0  0  0  0  0  0  0  0  0  0  0  0
   48.9673   -3.8306   -4.0977 C   0  0  0  0  0  0  0  0  0  0  0  0
   50.1300   -4.5467   -4.3594 C   0  0  0  0  0  0  0  0  0  0  0  0
  1  2  1  0  0  0
  2  3  2  0  0  0
  3  4  1  0  0  0
  3  5  1  0  0  0
  5  6  2  0  0  0
  6  7  1  0  0  0
  7 10  1  0  0  0
 10 11  2  0  0  0
 11 12  1  0  0  0
 12 13  1  0  0  0
 13 14  1  0  0  0
 14 15  1  0  0  0
 15 16  1  0  0  0
 16 17  2  0  0  0
 12 19  1  0  0  0
 19 20  2  0  0  0
 20 21  1  0  0  0
 21 22  2  0  0  0
 22 23  1  0  0  0
 23 24  2  0  0  0
  7  8  2  0  0  0
  8 25  1  0  0  0
 25 26  1  0  0  0
 26 27  1  0  0  0
 27 28  1  0  0  0
 28 29  1  0  0  0
 29 30  1  0  0  0
 30 31  1  0  0  0
 31 32  2  0  0  0
 32 33  1  0  0  0
 33 34  2  0  0  0
 34 35  1  0  0  0
 35 36  2  0  0  0
  8  2  1  0  0  0
 30 26  1  0  0  0
 36 31  1  0  0  0
 16 11  1  0  0  0
 24 19  1  0  0  0
  4  9  1  0  0  0
 15 18  1  0  0  0
M  END
> <minimizedAffinity>
-9.25236

> <CNNscore>
0.3735020459

> <CNNaffinity>
7.3195052147

> <CNN_VS>
2.7338502407

> <CNNaffinity_variance>
0.0562136397

$$$$
[H]Oc1c([H])c([H])c(C([H])=C2C(=O)N([H])C([H])([H])C([H])([H])N2c2c([H])nc([H])c([H])c2[H])c(C([H])([H])N2C([H])([H])C([H])([H])C([H])([H])[C@]2([H])c2c([H])c([H])c([H])c([H])c2[H])c1Br


 36 40  0  0  0  0  0  0  0  0999 V2000
   56.3860   -4.7214  -10.6324 Br  0  0  0  0  0  0  0  0  0  0  0  0
   58.2682   -5.1247  -10.5474 C   0  0  0  0  0  0  0  0  0  0  0  0
   59.1012   -4.8524  -11.5756 C   0  0  0  0  0  0  0  0  0  0  0  0
   58.6361   -4.2645  -12.7550 O   0  0  0  0  0  0  0  0  0  0  0  0
   60.4524   -5.1451  -11.5036 C   0  0  0  0  0  0  0  0  0  0  0  0
   60.9457   -5.7210  -10.3669 C   0  0  0  0  0  0  0  0  0  0  0  0
   60.0922   -6.0251   -9.2551 C   0  0  0  0  0  0  0  0  0  0  0  0
   58.7919   -5.7353   -9.3406 C   0  0  0  0  0  0  0  0  0  0  0  0
   57.6729   -4.0440  -12.8285 H   0  0  0  0  0  0  0  0  0  0  0  0
   60.7688   -6.6494   -8.1290 C   0  0  0  0  0  0  0  0  0  0  0  0
   61.1592   -7.8938   -8.1722 C   0  0  0  0  0  0  0  0  0  0  0  0
   61.8318   -8.4477   -7.0357 N   0  0  0  0  0  0  0  0  0  0  0  0
   61.7684   -9.8809   -6.7604 C   0  0  0  0  0  0  0  0  0  0  0  0
   61.9844  -10.6636   -8.0336 C   0  0  0  0  0  0  0  0  0  0  0  0
   61.3497  -10.1401   -9.1843 N   0  0  0  0  0  0  0  0  0  0  0  0
   60.9213   -8.8010   -9.2804 C   0  0  0  0  0  0  0  0  0  0  0  0
   60.3312   -8.3769  -10.3171 O   0  0  0  0  0  0  0  0  0  0  0  0
   61.1892  -10.7963  -10.0113 H   0  0  0  0  0  0  0  0  0  0  0  0
   62.6037   -7.6440   -6.1989 C   0  0  0  0  0  0  0  0  0  0  0  0
   63.6698   -6.9634   -6.7442 C   0  0  0  0  0  0  0  0  0  0  0  0
   64.4599   -6.1142   -5.9826 C   0  0  0  0  0  0  0  0  0  0  0  0
   64.1568   -5.9587   -4.6477 C   0  0  0  0  0  0  0  0  0  0  0  0
   63.1217   -6.6174   -4.1113 N   0  0  0  0  0  0  0  0  0  0  0  0
   62.3506   -7.4524   -4.8756 C   0  0  0  0  0  0  0  0  0  0  0  0
   57.7452   -5.9738   -8.3900 C   0  0  0  0  0  0  0  0  0  0  0  0
   57.4392   -5.1802   -7.2861 N   0  0  0  0  0  0  0  0  0  0  0  0
   57.1673   -3.7899   -7.5898 C   0  0  0  0  0  0  0  0  0  0  0  0
   55.6385   -3.6364   -7.5595 C   0  0  0  0  0  0  0  0  0  0  0  0
   55.2079   -4.6552   -6.5557 C   0  0  0  0  0  0  0  0  0  0  0  0
   56.2630   -5.7186   -6.5937 C   0  0  0  0  0  0  0  0  0  0  0  0
   56.6270   -6.0572   -5.2174 C   0  0  0  0  0  0  0  0  0  0  0  0
   56.0063   -5.3122   -4.2057 C   0  0  0  0  0  0  0  0  0  0  0  0
   56.3110   -5.5394   -2.8842 C   0  0  0  0  0  0  0  0  0  0  0  0
   57.2392   -6.5126   -2.5493 C   0  0  0  0  0  0  0  0  0  0  0  0
   57.8183   -7.2136   -3.5611 C   0  0  0  0  0  0  0  0  0  0  0  0
   57.5430   -7.0207   -4.9102 C   0  0  0  0  0  0  0  0  0  0  0  0
  1  2  1  0  0  0
  2  3  2  0  0  0
  3  4  1  0  0  0
  3  5  1  0  0  0
  5  6  2  0  0  0
  6  7  1  0  0  0
  7 10  1  0  0  0
 10 11  2  0  0  0
 11 12  1  0  0  0
 12 13  1  0  0  0
 13 14  1  0  0  0
 14 15  1  0  0  0
 15 16  1  0  0  0
 16 17  2  0  0  0
 12 19  1  0  0  0
 19 20  2  0  0  0
 20 21  1  0  0  0
 21 22  2  0  0  0
 22 23  1  0  0  0
 23 24  2  0  0  0
  7  8  2  0  0  0
  8 25  1  0  0  0
 25 26  1  0  0  0
 26 27  1  0  0  0
 27 28  1  0  0  0
 28 29  1  0  0  0
 29 30  1  0  0  0
 30 31  1  0  0  0
 31 32  2  0  0  0
 32 33  1  0  0  0
 33 34  2  0  0  0
 34 35  1  0  0  0
 35 36  2  0  0  0
  8  2  1  0  0  0
 30 26  1  0  0  0
 36 31  1  0  0  0
 16 11  1  0  0  0
 24 19  1  0  0  0
  4  9  1  0  0  0
 15 18  1  0  0  0
M  END
> <minimizedAffinity>
-4.06075

> <CNNscore>
0.3484063745

> <CNNaffinity>
6.1217823029

> <CNN_VS>
2.1328680515

> <CNNaffinity_variance>
0.2848775387

$$$$
[H]Oc1c([H])c([H])c(C([H])=C2C(=O)N([H])C([H])([H])C([H])([H])N2c2c([H])nc([H])c([H])c2[H])c(C([H])([H])N2C([H])([H])C([H])([H])C([H])([H])[C@]2([H])c2c([H])c([H])c([H])c([H])c2[H])c1Br


 36 40  0  0  0  0  0  0  0  0999 V2000
   57.0559   -3.3477  -10.9761 Br  0  0  0  0  0  0  0  0  0  0  0  0
   58.1253   -3.7261  -12.5337 C   0  0  0  0  0  0  0  0  0  0  0  0
   57.6165   -3.6455  -13.7826 C   0  0  0  0  0  0  0  0  0  0  0  0
   56.2852   -3.2840  -14.0058 O   0  0  0  0  0  0  0  0  0  0  0  0
   58.3941   -3.9183  -14.8950 C   0  0  0  0  0  0  0  0  0  0  0  0
   59.7010   -4.2758  -14.7182 C   0  0  0  0  0  0  0  0  0  0  0  0
   60.2761   -4.3724  -13.4078 C   0  0  0  0  0  0  0  0  0  0  0  0
   59.5126   -4.1049  -12.3459 C   0  0  0  0  0  0  0  0  0  0  0  0
   55.7101   -3.0819  -13.2247 H   0  0  0  0  0  0  0  0  0  0  0  0
   61.6724   -4.7791  -13.3910 C   0  0  0  0  0  0  0  0  0  0  0  0
   62.6325   -3.9335  -13.6483 C   0  0  0  0  0  0  0  0  0  0  0  0
   63.9885   -4.3918  -13.6035 N   0  0  0  0  0  0  0  0  0  0  0  0
   65.0196   -3.7415  -14.4083 C   0  0  0  0  0  0  0  0  0  0  0  0
   64.8833   -2.2407  -14.3114 C   0  0  0  0  0  0  0  0  0  0  0  0
   63.5578   -1.7477  -14.3356 N   0  0  0  0  0  0  0  0  0  0  0  0
   62.4375   -2.5474  -14.0333 C   0  0  0  0  0  0  0  0  0  0  0  0
   61.2638   -2.0766  -14.0933 O   0  0  0  0  0  0  0  0  0  0  0  0
   63.4079   -0.7236  -14.5985 H   0  0  0  0  0  0  0  0  0  0  0  0
   64.3654   -5.4304  -12.7541 C   0  0  0  0  0  0  0  0  0  0  0  0
   63.6844   -6.6248  -12.8367 C   0  0  0  0  0  0  0  0  0  0  0  0
   64.0276   -7.7162  -12.0516 C   0  0  0  0  0  0  0  0  0  0  0  0
   65.0795   -7.5854  -11.1716 C   0  0  0  0  0  0  0  0  0  0  0  0
   65.7458   -6.4271  -11.0863 N   0  0  0  0  0  0  0  0  0  0  0  0
   65.3955   -5.3581  -11.8678 C   0  0  0  0  0  0  0  0  0  0  0  0
   59.8439   -4.1667  -10.9521 C   0  0  0  0  0  0  0  0  0  0  0  0
   59.7077   -5.2778  -10.1221 N   0  0  0  0  0  0  0  0  0  0  0  0
   58.3527   -5.7696   -9.9771 C   0  0  0  0  0  0  0  0  0  0  0  0
   58.2439   -7.0000  -10.8914 C   0  0  0  0  0  0  0  0  0  0  0  0
   59.6300   -7.5566  -10.8894 C   0  0  0  0  0  0  0  0  0  0  0  0
   60.5267   -6.3845  -10.6294 C   0  0  0  0  0  0  0  0  0  0  0  0
   61.5037   -6.7678   -9.6098 C   0  0  0  0  0  0  0  0  0  0  0  0
   61.4529   -8.0953   -9.1635 C   0  0  0  0  0  0  0  0  0  0  0  0
   62.3117   -8.5362   -8.1844 C   0  0  0  0  0  0  0  0  0  0  0  0
   63.2352   -7.6616   -7.6340 C   0  0  0  0  0  0  0  0  0  0  0  0
   63.2522   -6.3820   -8.0953 C   0  0  0  0  0  0  0  0  0  0  0  0
   62.4055   -5.8902   -9.0824 C   0  0  0  0  0  0  0  0  0  0  0  0
  1  2  1  0  0  0
  2  3  2  0  0  0
  3  4  1  0  0  0
  3  5  1  0  0  0
  5  6  2  0  0  0
  6  7  1  0  0  0
  7 10  1  0  0  0
 10 11  2  0  0  0
 11 12  1  0  0  0
 12 13  1  0  0  0
 13 14  1  0  0  0
 14 15  1  0  0  0
 15 16  1  0  0  0
 16 17  2  0  0  0
 12 19  1  0  0  0
 19 20  2  0  0  0
 20 21  1  0  0  0
 21 22  2  0  0  0
 22 23  1  0  0  0
 23 24  2  0  0  0
  7  8  2  0  0  0
  8 25  1  0  0  0
 25 26  1  0  0  0
 26 27  1  0  0  0
 27 28  1  0  0  0
 28 29  1  0  0  0
 29 30  1  0  0  0
 30 31  1  0  0  0
 31 32  2  0  0  0
 32 33  1  0  0  0
 33 34  2  0  0  0
 34 35  1  0  0  0
 35 36  2  0  0  0
  8  2  1  0  0  0
 30 26  1  0  0  0
 36 31  1  0  0  0
 16 11  1  0  0  0
 24 19  1  0  0  0
  4  9  1  0  0  0
 15 18  1  0  0  0
M  END
> <minimizedAffinity>
7.61124

> <CNNscore>
0.3124262691

> <CNNaffinity>
5.0738477707

> <CNN_VS>
1.5852032900

> <CNNaffinity_variance>
0.4200399816

$$$$
[H]Oc1c([H])c([H])c(C([H])=C2C(=O)N([H])C([H])([H])C([H])([H])N2c2c([H])nc([H])c([H])c2[H])c(C([H])([H])N2C([H])([H])C([H])([H])C([H])([H])[C@]2([H])c2c([H])c([H])c([H])c([H])c2[H])c1Br


 36 40  0  0  0  0  0  0  0  0999 V2000
   55.1841   -2.9317   -8.2011 Br  0  0  0  0  0  0  0  0  0  0  0  0
   56.4591   -4.0928   -9.0607 C   0  0  0  0  0  0  0  0  0  0  0  0
   56.4978   -4.2367  -10.4034 C   0  0  0  0  0  0  0  0  0  0  0  0
   55.6110   -3.5492  -11.2365 O   0  0  0  0  0  0  0  0  0  0  0  0
   57.4189   -5.0728  -11.0110 C   0  0  0  0  0  0  0  0  0  0  0  0
   58.3029   -5.7629  -10.2304 C   0  0  0  0  0  0  0  0  0  0  0  0
   58.2918   -5.6361   -8.8018 C   0  0  0  0  0  0  0  0  0  0  0  0
   57.3977   -4.8248   -8.2321 C   0  0  0  0  0  0  0  0  0  0  0  0
   54.9442   -2.9433  -10.8242 H   0  0  0  0  0  0  0  0  0  0  0  0
   59.2853   -6.4482   -8.1170 C   0  0  0  0  0  0  0  0  0  0  0  0
   60.4630   -6.6662   -8.6350 C   0  0  0  0  0  0  0  0  0  0  0  0
   61.4027   -7.4639   -7.9059 N   0  0  0  0  0  0  0  0  0  0  0  0
   62.4376   -8.2196   -8.6071 C   0  0  0  0  0  0  0  0  0  0  0  0
   63.0713   -7.3621   -9.6764 C   0  0  0  0  0  0  0  0  0  0  0  0
   62.1786   -6.5458  -10.4095 N   0  0  0  0  0  0  0  0  0  0  0  0
   60.8958   -6.1997   -9.9399 C   0  0  0  0  0  0  0  0  0  0  0  0
   60.1144   -5.4895  -10.6384 O   0  0  0  0  0  0  0  0  0  0  0  0
   62.4976   -6.1823  -11.3616 H   0  0  0  0  0  0  0  0  0  0  0  0
   61.3856   -7.4957   -6.5128 C   0  0  0  0  0  0  0  0  0  0  0  0
   62.5652   -7.2732   -5.8374 C   0  0  0  0  0  0  0  0  0  0  0  0
   62.6192   -7.2505   -4.4511 C   0  0  0  0  0  0  0  0  0  0  0  0
   61.4535   -7.4577   -3.7465 C   0  0  0  0  0  0  0  0  0  0  0  0
   60.3033   -7.6745   -4.3969 N   0  0  0  0  0  0  0  0  0  0  0  0
   60.2654   -7.6941   -5.7659 C   0  0  0  0  0  0  0  0  0  0  0  0
   57.1681   -4.5622   -6.8413 C   0  0  0  0  0  0  0  0  0  0  0  0
   56.1003   -5.0335   -6.0799 N   0  0  0  0  0  0  0  0  0  0  0  0
   54.8812   -5.2786   -6.8233 C   0  0  0  0  0  0  0  0  0  0  0  0
   54.8120   -6.7981   -7.0427 C   0  0  0  0  0  0  0  0  0  0  0  0
   55.5081   -7.3532   -5.8433 C   0  0  0  0  0  0  0  0  0  0  0  0
   56.4734   -6.2888   -5.4182 C   0  0  0  0  0  0  0  0  0  0  0  0
   56.3656   -6.1200   -3.9687 C   0  0  0  0  0  0  0  0  0  0  0  0
   56.1389   -7.2824   -3.2195 C   0  0  0  0  0  0  0  0  0  0  0  0
   55.9926   -7.2156   -1.8539 C   0  0  0  0  0  0  0  0  0  0  0  0
   56.0696   -5.9894   -1.2126 C   0  0  0  0  0  0  0  0  0  0  0  0
   56.2912   -4.8856   -1.9760 C   0  0  0  0  0  0  0  0  0  0  0  0
   56.4459   -4.9027   -3.3577 C   0  0  0  0  0  0  0  0  0  0  0  0
  1  2  1  0  0  0
  2  3  2  0  0  0
  3  4  1  0  0  0
  3  5  1  0  0  0
  5  6  2  0  0  0
  6  7  1  0  0  0
  7 10  1  0  0  0
 10 11  2  0  0  0
 11 12  1  0  0  0
 12 13  1  0  0  0
 13 14  1  0  0  0
 14 15  1  0  0  0
 15 16  1  0  0  0
 16 17  2  0  0  0
 12 19  1  0  0  0
 19 20  2  0  0  0
 20 21  1  0  0  0
 21 22  2  0  0  0
 22 23  1  0  0  0
 23 24  2  0  0  0
  7  8  2  0  0  0
  8 25  1  0  0  0
 25 26  1  0  0  0
 26 27  1  0  0  0
 27 28  1  0  0  0
 28 29  1  0  0  0
 29 30  1  0  0  0
 30 31  1  0  0  0
 31 32  2  0  0  0
 32 33  1  0  0  0
 33 34  2  0  0  0
 34 35  1  0  0  0
 35 36  2  0  0  0
  8  2  1  0  0  0
 30 26  1  0  0  0
 36 31  1  0  0  0
 16 11  1  0  0  0
 24 19  1  0  0  0
  4  9  1  0  0  0
 15 18  1  0  0  0
M  END
> <minimizedAffinity>
-4.64827

> <CNNscore>
0.2565837502

> <CNNaffinity>
6.3294181824

> <CNN_VS>
1.6240258217

> <CNNaffinity_variance>
0.0982589126

$$$$
[H]Oc1c([H])c([H])c(C([H])=C2C(=O)N([H])C([H])([H])C([H])([H])N2c2c([H])nc([H])c([H])c2[H])c(C([H])([H])N2C([H])([H])C([H])([H])C([H])([H])[C@]2([H])c2c([H])c([H])c([H])c([H])c2[H])c1Br


 36 40  0  0  0  0  0  0  0  0999 V2000
   55.2207   -3.2878   -8.3629 Br  0  0  0  0  0  0  0  0  0  0  0  0
   56.6795   -4.2435   -9.1821 C   0  0  0  0  0  0  0  0  0  0  0  0
   56.8876   -4.2160  -10.5167 C   0  0  0  0  0  0  0  0  0  0  0  0
   56.0512   -3.4920  -11.3705 O   0  0  0  0  0  0  0  0  0  0  0  0
   57.9398   -4.9054  -11.0950 C   0  0  0  0  0  0  0  0  0  0  0  0
   58.7799   -5.6257  -10.2935 C   0  0  0  0  0  0  0  0  0  0  0  0
   58.5905   -5.6790   -8.8728 C   0  0  0  0  0  0  0  0  0  0  0  0
   57.5716   -5.0075   -8.3313 C   0  0  0  0  0  0  0  0  0  0  0  0
   55.2927   -2.9889  -10.9789 H   0  0  0  0  0  0  0  0  0  0  0  0
   59.5603   -6.5007   -8.1659 C   0  0  0  0  0  0  0  0  0  0  0  0
   60.7335   -6.7611   -8.6745 C   0  0  0  0  0  0  0  0  0  0  0  0
   61.6497   -7.5660   -7.9239 N   0  0  0  0  0  0  0  0  0  0  0  0
   62.6668   -8.3644   -8.6037 C   0  0  0  0  0  0  0  0  0  0  0  0
   63.3259   -7.5486   -9.6900 C   0  0  0  0  0  0  0  0  0  0  0  0
   62.4571   -6.7264  -10.4449 N   0  0  0  0  0  0  0  0  0  0  0  0
   61.1824   -6.3362   -9.9881 C   0  0  0  0  0  0  0  0  0  0  0  0
   60.4219   -5.6222  -10.7056 O   0  0  0  0  0  0  0  0  0  0  0  0
   62.7884   -6.3933  -11.4040 H   0  0  0  0  0  0  0  0  0  0  0  0
   61.6275   -7.5653   -6.5304 C   0  0  0  0  0  0  0  0  0  0  0  0
   60.6703   -8.3205   -5.8896 C   0  0  0  0  0  0  0  0  0  0  0  0
   60.6100   -8.4005   -4.5056 C   0  0  0  0  0  0  0  0  0  0  0  0
   61.5393   -7.7004   -3.7678 C   0  0  0  0  0  0  0  0  0  0  0  0
   62.4726   -6.9645   -4.3844 N   0  0  0  0  0  0  0  0  0  0  0  0
   62.5197   -6.8950   -5.7516 C   0  0  0  0  0  0  0  0  0  0  0  0
   57.1591   -4.9366   -6.9598 C   0  0  0  0  0  0  0  0  0  0  0  0
   56.3711   -5.8690   -6.2879 N   0  0  0  0  0  0  0  0  0  0  0  0
   57.1003   -6.7777   -5.4267 C   0  0  0  0  0  0  0  0  0  0  0  0
   56.9115   -6.2539   -3.9943 C   0  0  0  0  0  0  0  0  0  0  0  0
   55.5650   -5.6087   -4.0361 C   0  0  0  0  0  0  0  0  0  0  0  0
   55.3764   -5.1787   -5.4592 C   0  0  0  0  0  0  0  0  0  0  0  0
   54.0343   -5.5745   -5.8871 C   0  0  0  0  0  0  0  0  0  0  0  0
   53.0351   -5.5587   -4.9046 C   0  0  0  0  0  0  0  0  0  0  0  0
   51.7510   -5.9456   -5.2081 C   0  0  0  0  0  0  0  0  0  0  0  0
   51.4416   -6.3546   -6.4956 C   0  0  0  0  0  0  0  0  0  0  0  0
   52.4398   -6.3549   -7.4197 C   0  0  0  0  0  0  0  0  0  0  0  0
   53.7514   -5.9726   -7.1611 C   0  0  0  0  0  0  0  0  0  0  0  0
  1  2  1  0  0  0
  2  3  2  0  0  0
  3  4  1  0  0  0
  3  5  1  0  0  0
  5  6  2  0  0  0
  6  7  1  0  0  0
  7 10  1  0  0  0
 10 11  2  0  0  0
 11 12  1  0  0  0
 12 13  1  0  0  0
 13 14  1  0  0  0
 14 15  1  0  0  0
 15 16  1  0  0  0
 16 17  2  0  0  0
 12 19  1  0  0  0
 19 20  2  0  0  0
 20 21  1  0  0  0
 21 22  2  0  0  0
 22 23  1  0  0  0
 23 24  2  0  0  0
  7  8  2  0  0  0
  8 25  1  0  0  0
 25 26  1  0  0  0
 26 27  1  0  0  0
 27 28  1  0  0  0
 28 29  1  0  0  0
 29 30  1  0  0  0
 30 31  1  0  0  0
 31 32  2  0  0  0
 32 33  1  0  0  0
 33 34  2  0  0  0
 34 35  1  0  0  0
 35 36  2  0  0  0
  8  2  1  0  0  0
 30 26  1  0  0  0
 36 31  1  0  0  0
 16 11  1  0  0  0
 24 19  1  0  0  0
  4  9  1  0  0  0
 15 18  1  0  0  0
M  END
> <minimizedAffinity>
-6.91298

> <CNNscore>
0.2318654507

> <CNNaffinity>
6.5819396973

> <CNN_VS>
1.5261243582

> <CNNaffinity_variance>
0.0501137860

$$$$
[H]C(=O)c1nn([H])c2c([H])c([H])c(-c3c([H])c([H])nc(N([H])[C@@]4([H])N([H])C([H])([H])C([H])([H])C4([H])[H])c3[H])c([H])c12


 26 29  0  0  0  0  0  0  0  0999 V2000
   53.5935   -6.3219   -5.1011 C   0  0  0  0  0  0  0  0  0  0  0  0
   54.7176   -7.0518   -5.4096 C   0  0  0  0  0  0  0  0  0  0  0  0
   55.2372   -7.9718   -4.4911 C   0  0  0  0  0  0  0  0  0  0  0  0
   54.6114   -8.1197   -3.3091 N   0  0  0  0  0  0  0  0  0  0  0  0
   53.5196   -7.4366   -2.9622 C   0  0  0  0  0  0  0  0  0  0  0  0
   53.0026   -6.5226   -3.8738 C   0  0  0  0  0  0  0  0  0  0  0  0
   53.6760   -3.2934   -9.0476 C   0  0  0  0  0  0  0  0  0  0  0  0
   52.6540   -2.5145   -9.4833 N   0  0  0  0  0  0  0  0  0  0  0  0
   51.6149   -2.6660   -8.7080 N   0  0  0  0  0  0  0  0  0  0  0  0
   51.9078   -3.5500   -7.7298 C   0  0  0  0  0  0  0  0  0  0  0  0
   51.1608   -4.0415   -6.6795 C   0  0  0  0  0  0  0  0  0  0  0  0
   51.7128   -4.9444   -5.8227 C   0  0  0  0  0  0  0  0  0  0  0  0
   53.0172   -5.3557   -6.0195 C   0  0  0  0  0  0  0  0  0  0  0  0
   53.7803   -4.8723   -7.0682 C   0  0  0  0  0  0  0  0  0  0  0  0
   53.2133   -3.9624   -7.9256 C   0  0  0  0  0  0  0  0  0  0  0  0
   50.6810   -2.2011   -8.7874 H   0  0  0  0  0  0  0  0  0  0  0  0
   55.5386   -4.4970   -9.7500 O   0  0  0  0  0  0  0  0  0  0  0  0
   54.9905   -3.3865   -9.6599 C   0  0  0  0  0  0  0  0  0  0  0  0
   52.8632   -7.5911   -1.7244 N   0  0  0  0  0  0  0  0  0  0  0  0
   53.1987   -7.0631   -0.8709 H   0  0  0  0  0  0  0  0  0  0  0  0
   51.7268   -8.4848   -1.6551 C   0  0  0  0  0  0  0  0  0  0  0  0
   50.6365   -7.8521   -0.8526 C   0  0  0  0  0  0  0  0  0  0  0  0
   49.9869   -9.0138   -0.1228 C   0  0  0  0  0  0  0  0  0  0  0  0
   51.0639  -10.0637   -0.0609 C   0  0  0  0  0  0  0  0  0  0  0  0
   52.0523   -9.7449   -1.0374 N   0  0  0  0  0  0  0  0  0  0  0  0
   53.0320   -9.7856   -0.6821 H   0  0  0  0  0  0  0  0  0  0  0  0
 17 18  2  0  0  0
 18  7  1  0  0  0
  7  8  2  0  0  0
  8  9  1  0  0  0
  9 10  1  0  0  0
 10 11  2  0  0  0
 11 12  1  0  0  0
 12 13  2  0  0  0
 13 14  1  0  0  0
 14 15  2  0  0  0
 13  1  1  0  0  0
  1  2  2  0  0  0
  2  3  1  0  0  0
  3  4  2  0  0  0
  4  5  1  0  0  0
  5 19  1  0  0  0
 19 21  1  0  0  0
 21 22  1  0  0  0
 22 23  1  0  0  0
 23 24  1  0  0  0
 24 25  1  0  0  0
  5  6  2  0  0  0
 15  7  1  0  0  0
  6  1  1  0  0  0
 15 10  1  0  0  0
 25 21  1  0  0  0
  9 16  1  0  0  0
 19 20  1  0  0  0
 25 26  1  0  0  0
M  END
> <minimizedAffinity>
-8.64044

> <CNNscore>
0.6604298949

> <CNNaffinity>
6.3315372467

> <CNN_VS>
4.1815366745

> <CNNaffinity_variance>
0.0999041349

$$$$
[H]C(=O)c1nn([H])c2c([H])c([H])c(-c3c([H])c([H])nc(N([H])[C@@]4([H])N([H])C([H])([H])C([H])([H])C4([H])[H])c3[H])c([H])c12


 26 29  0  0  0  0  0  0  0  0999 V2000
   52.5701   -3.9375   -7.6558 C   0  0  0  0  0  0  0  0  0  0  0  0
   51.9364   -3.1803   -8.6133 C   0  0  0  0  0  0  0  0  0  0  0  0
   52.6304   -2.7568   -9.7531 C   0  0  0  0  0  0  0  0  0  0  0  0
   53.9227   -3.1082   -9.8835 N   0  0  0  0  0  0  0  0  0  0  0  0
   54.5821   -3.8403   -8.9844 C   0  0  0  0  0  0  0  0  0  0  0  0
   53.8938   -4.2616   -7.8520 C   0  0  0  0  0  0  0  0  0  0  0  0
   48.9502   -3.8582   -4.2436 C   0  0  0  0  0  0  0  0  0  0  0  0
   48.8376   -4.6846   -3.1733 N   0  0  0  0  0  0  0  0  0  0  0  0
   49.8336   -5.5280   -3.1534 N   0  0  0  0  0  0  0  0  0  0  0  0
   50.6437   -5.2934   -4.2082 C   0  0  0  0  0  0  0  0  0  0  0  0
   51.8091   -5.9012   -4.6269 C   0  0  0  0  0  0  0  0  0  0  0  0
   52.4364   -5.4567   -5.7508 C   0  0  0  0  0  0  0  0  0  0  0  0
   51.8938   -4.4000   -6.4567 C   0  0  0  0  0  0  0  0  0  0  0  0
   50.7254   -3.7791   -6.0502 C   0  0  0  0  0  0  0  0  0  0  0  0
   50.1018   -4.2358   -4.9157 C   0  0  0  0  0  0  0  0  0  0  0  0
   50.0212   -6.2841   -2.4549 H   0  0  0  0  0  0  0  0  0  0  0  0
   46.9306   -2.7277   -4.0107 O   0  0  0  0  0  0  0  0  0  0  0  0
   48.0262   -2.7921   -4.5913 C   0  0  0  0  0  0  0  0  0  0  0  0
   55.9358   -4.2092   -9.1203 N   0  0  0  0  0  0  0  0  0  0  0  0
   56.5800   -4.2000   -8.2809 H   0  0  0  0  0  0  0  0  0  0  0  0
   56.4149   -4.5977  -10.4296 C   0  0  0  0  0  0  0  0  0  0  0  0
   57.8332   -5.0577  -10.3310 C   0  0  0  0  0  0  0  0  0  0  0  0
   58.4670   -4.5971  -11.6311 C   0  0  0  0  0  0  0  0  0  0  0  0
   57.6120   -3.4396  -12.0727 C   0  0  0  0  0  0  0  0  0  0  0  0
   56.3693   -3.5143  -11.3781 N   0  0  0  0  0  0  0  0  0  0  0  0
   56.0622   -2.6121  -10.9545 H   0  0  0  0  0  0  0  0  0  0  0  0
 17 18  2  0  0  0
 18  7  1  0  0  0
  7  8  2  0  0  0
  8  9  1  0  0  0
  9 10  1  0  0  0
 10 11  2  0  0  0
 11 12  1  0  0  0
 12 13  2  0  0  0
 13 14  1  0  0  0
 14 15  2  0  0  0
 13  1  1  0  0  0
  1  2  2  0  0  0
  2  3  1  0  0  0
  3  4  2  0  0  0
  4  5  1  0  0  0
  5 19  1  0  0  0
 19 21  1  0  0  0
 21 22  1  0  0  0
 22 23  1  0  0  0
 23 24  1  0  0  0
 24 25  1  0  0  0
  5  6  2  0  0  0
 15  7  1  0  0  0
  6  1  1  0  0  0
 15 10  1  0  0  0
 25 21  1  0  0  0
  9 16  1  0  0  0
 19 20  1  0  0  0
 25 26  1  0  0  0
M  END
> <minimizedAffinity>
-9.17388

> <CNNscore>
0.6315676570

> <CNNaffinity>
6.6938438416

> <CNN_VS>
4.2276153564

> <CNNaffinity_variance>
0.2490084916

$$$$
[H]C(=O)c1nn([H])c2c([H])c([H])c(-c3c([H])c([H])nc(N([H])[C@@]4([H])N([H])C([H])([H])C([H])([H])C4([H])[H])c3[H])c([H])c12


 26 29  0  0  0  0  0  0  0  0999 V2000
   53.5634   -6.2387   -5.2456 C   0  0  0  0  0  0  0  0  0  0  0  0
   54.6701   -6.9105   -5.7099 C   0  0  0  0  0  0  0  0  0  0  0  0
   55.3109   -7.8590   -4.9039 C   0  0  0  0  0  0  0  0  0  0  0  0
   54.8180   -8.0921   -3.6738 N   0  0  0  0  0  0  0  0  0  0  0  0
   53.7488   -7.4679   -3.1774 C   0  0  0  0  0  0  0  0  0  0  0  0
   53.1114   -6.5257   -3.9771 C   0  0  0  0  0  0  0  0  0  0  0  0
   49.7897   -3.1600   -6.2625 C   0  0  0  0  0  0  0  0  0  0  0  0
   49.6895   -2.3413   -7.3399 N   0  0  0  0  0  0  0  0  0  0  0  0
   50.7432   -2.4713   -8.0993 N   0  0  0  0  0  0  0  0  0  0  0  0
   51.5812   -3.3801   -7.5553 C   0  0  0  0  0  0  0  0  0  0  0  0
   52.8068   -3.8629   -7.9646 C   0  0  0  0  0  0  0  0  0  0  0  0
   53.4510   -4.7960   -7.2106 C   0  0  0  0  0  0  0  0  0  0  0  0
   52.8648   -5.2461   -6.0430 C   0  0  0  0  0  0  0  0  0  0  0  0
   51.6358   -4.7720   -5.6182 C   0  0  0  0  0  0  0  0  0  0  0  0
   50.9957   -3.8315   -6.3865 C   0  0  0  0  0  0  0  0  0  0  0  0
   50.9540   -1.9750   -8.9959 H   0  0  0  0  0  0  0  0  0  0  0  0
   48.6145   -2.3275   -4.4358 O   0  0  0  0  0  0  0  0  0  0  0  0
   48.8060   -3.2866   -5.2007 C   0  0  0  0  0  0  0  0  0  0  0  0
   53.2315   -7.7116   -1.8891 N   0  0  0  0  0  0  0  0  0  0  0  0
   53.7528   -7.3779   -1.0308 H   0  0  0  0  0  0  0  0  0  0  0  0
   51.9774   -8.4250   -1.7748 C   0  0  0  0  0  0  0  0  0  0  0  0
   51.0135   -7.6228   -0.9621 C   0  0  0  0  0  0  0  0  0  0  0  0
   50.2178   -8.6616   -0.1927 C   0  0  0  0  0  0  0  0  0  0  0  0
   51.1285   -9.8585   -0.1321 C   0  0  0  0  0  0  0  0  0  0  0  0
   52.1281   -9.7081   -1.1373 N   0  0  0  0  0  0  0  0  0  0  0  0
   53.0997   -9.8875   -0.8032 H   0  0  0  0  0  0  0  0  0  0  0  0
 17 18  2  0  0  0
 18  7  1  0  0  0
  7  8  2  0  0  0
  8  9  1  0  0  0
  9 10  1  0  0  0
 10 11  2  0  0  0
 11 12  1  0  0  0
 12 13  2  0  0  0
 13 14  1  0  0  0
 14 15  2  0  0  0
 13  1  1  0  0  0
  1  2  2  0  0  0
  2  3  1  0  0  0
  3  4  2  0  0  0
  4  5  1  0  0  0
  5 19  1  0  0  0
 19 21  1  0  0  0
 21 22  1  0  0  0
 22 23  1  0  0  0
 23 24  1  0  0  0
 24 25  1  0  0  0
  5  6  2  0  0  0
 15  7  1  0  0  0
  6  1  1  0  0  0
 15 10  1  0  0  0
 25 21  1  0  0  0
  9 16  1  0  0  0
 19 20  1  0  0  0
 25 26  1  0  0  0
M  END
> <minimizedAffinity>
-8.70506

> <CNNscore>
0.5908165574

> <CNNaffinity>
6.4194669724

> <CNN_VS>
3.7927274704

> <CNNaffinity_variance>
0.0763326511

$$$$
[H]C(=O)c1nn([H])c2c([H])c([H])c(-c3c([H])c([H])nc(N([H])[C@@]4([H])N([H])C([H])([H])C([H])([H])C4([H])[H])c3[H])c([H])c12


 26 29  0  0  0  0  0  0  0  0999 V2000
   55.6781   -4.3653   -8.8856 C   0  0  0  0  0  0  0  0  0  0  0  0
   56.5487   -4.7837   -7.9066 C   0  0  0  0  0  0  0  0  0  0  0  0
   57.8415   -5.2031   -8.2425 C   0  0  0  0  0  0  0  0  0  0  0  0
   58.2042   -5.1856   -9.5381 N   0  0  0  0  0  0  0  0  0  0  0  0
   57.3980   -4.7893  -10.5241 C   0  0  0  0  0  0  0  0  0  0  0  0
   56.1138   -4.3724  -10.1917 C   0  0  0  0  0  0  0  0  0  0  0  0
   51.3069   -4.6004   -6.5210 C   0  0  0  0  0  0  0  0  0  0  0  0
   50.2545   -3.7616   -6.6940 N   0  0  0  0  0  0  0  0  0  0  0  0
   50.5458   -2.8583   -7.5900 N   0  0  0  0  0  0  0  0  0  0  0  0
   51.8008   -3.0632   -8.0450 C   0  0  0  0  0  0  0  0  0  0  0  0
   52.5618   -2.3931   -8.9801 C   0  0  0  0  0  0  0  0  0  0  0  0
   53.8255   -2.8201   -9.2537 C   0  0  0  0  0  0  0  0  0  0  0  0
   54.3276   -3.9219   -8.5878 C   0  0  0  0  0  0  0  0  0  0  0  0
   53.5773   -4.6054   -7.6468 C   0  0  0  0  0  0  0  0  0  0  0  0
   52.3046   -4.1658   -7.3792 C   0  0  0  0  0  0  0  0  0  0  0  0
   49.9402   -2.0785   -7.9365 H   0  0  0  0  0  0  0  0  0  0  0  0
   52.1067   -5.6808   -4.6226 O   0  0  0  0  0  0  0  0  0  0  0  0
   51.3497   -5.7280   -5.6056 C   0  0  0  0  0  0  0  0  0  0  0  0
   57.7772   -4.7702  -11.8816 N   0  0  0  0  0  0  0  0  0  0  0  0
   58.6726   -5.2397  -12.1941 H   0  0  0  0  0  0  0  0  0  0  0  0
   56.9138   -4.0961  -12.8277 C   0  0  0  0  0  0  0  0  0  0  0  0
   56.1781   -5.1064  -13.6470 C   0  0  0  0  0  0  0  0  0  0  0  0
   56.0652   -4.4654  -15.0183 C   0  0  0  0  0  0  0  0  0  0  0  0
   57.2085   -3.4875  -15.0675 C   0  0  0  0  0  0  0  0  0  0  0  0
   57.6439   -3.2447  -13.7320 N   0  0  0  0  0  0  0  0  0  0  0  0
   58.6773   -3.3013  -13.6030 H   0  0  0  0  0  0  0  0  0  0  0  0
 17 18  2  0  0  0
 18  7  1  0  0  0
  7  8  2  0  0  0
  8  9  1  0  0  0
  9 10  1  0  0  0
 10 11  2  0  0  0
 11 12  1  0  0  0
 12 13  2  0  0  0
 13 14  1  0  0  0
 14 15  2  0  0  0
 13  1  1  0  0  0
  1  2  2  0  0  0
  2  3  1  0  0  0
  3  4  2  0  0  0
  4  5  1  0  0  0
  5 19  1  0  0  0
 19 21  1  0  0  0
 21 22  1  0  0  0
 22 23  1  0  0  0
 23 24  1  0  0  0
 24 25  1  0  0  0
  5  6  2  0  0  0
 15  7  1  0  0  0
  6  1  1  0  0  0
 15 10  1  0  0  0
 25 21  1  0  0  0
  9 16  1  0  0  0
 19 20  1  0  0  0
 25 26  1  0  0  0
M  END
> <minimizedAffinity>
-9.57187

> <CNNscore>
0.5580376387

> <CNNaffinity>
6.3512330055

> <CNN_VS>
3.5442271233

> <CNNaffinity_variance>
0.1901166886

$$$$
[H]C(=O)c1nn([H])c2c([H])c([H])c(-c3c([H])c([H])nc(N([H])[C@@]4([H])N([H])C([H])([H])C([H])([H])C4([H])[H])c3[H])c([H])c12


 26 29  0  0  0  0  0  0  0  0999 V2000
   53.4597   -6.1727   -5.3217 C   0  0  0  0  0  0  0  0  0  0  0  0
   54.5209   -6.8192   -5.9112 C   0  0  0  0  0  0  0  0  0  0  0  0
   55.2600   -7.7659   -5.1917 C   0  0  0  0  0  0  0  0  0  0  0  0
   54.9057   -8.0225   -3.9192 N   0  0  0  0  0  0  0  0  0  0  0  0
   53.8860   -7.4233   -3.3025 C   0  0  0  0  0  0  0  0  0  0  0  0
   53.1512   -6.4829   -4.0161 C   0  0  0  0  0  0  0  0  0  0  0  0
   49.5588   -3.1349   -5.8766 C   0  0  0  0  0  0  0  0  0  0  0  0
   49.3274   -2.3093   -6.9283 N   0  0  0  0  0  0  0  0  0  0  0  0
   50.2897   -2.4200   -7.8032 N   0  0  0  0  0  0  0  0  0  0  0  0
   51.1946   -3.3221   -7.3660 C   0  0  0  0  0  0  0  0  0  0  0  0
   52.3716   -3.7860   -7.9158 C   0  0  0  0  0  0  0  0  0  0  0  0
   53.1081   -4.7165   -7.2481 C   0  0  0  0  0  0  0  0  0  0  0  0
   52.6635   -5.1831   -6.0258 C   0  0  0  0  0  0  0  0  0  0  0  0
   51.4850   -4.7280   -5.4602 C   0  0  0  0  0  0  0  0  0  0  0  0
   50.7507   -3.7900   -6.1425 C   0  0  0  0  0  0  0  0  0  0  0  0
   50.3915   -1.9141   -8.7135 H   0  0  0  0  0  0  0  0  0  0  0  0
   47.8207   -2.4356   -4.4979 O   0  0  0  0  0  0  0  0  0  0  0  0
   48.7033   -3.2823   -4.7114 C   0  0  0  0  0  0  0  0  0  0  0  0
   53.5140   -7.6917   -1.9697 N   0  0  0  0  0  0  0  0  0  0  0  0
   52.5362   -8.0277   -1.7440 H   0  0  0  0  0  0  0  0  0  0  0  0
   54.4993   -7.4964   -0.9277 C   0  0  0  0  0  0  0  0  0  0  0  0
   54.9710   -6.0785   -0.9396 C   0  0  0  0  0  0  0  0  0  0  0  0
   56.4368   -6.1687   -0.5555 C   0  0  0  0  0  0  0  0  0  0  0  0
   56.8379   -7.5669   -0.9428 C   0  0  0  0  0  0  0  0  0  0  0  0
   55.6524   -8.3443   -1.0923 N   0  0  0  0  0  0  0  0  0  0  0  0
   55.6216   -8.9119   -1.9668 H   0  0  0  0  0  0  0  0  0  0  0  0
 17 18  2  0  0  0
 18  7  1  0  0  0
  7  8  2  0  0  0
  8  9  1  0  0  0
  9 10  1  0  0  0
 10 11  2  0  0  0
 11 12  1  0  0  0
 12 13  2  0  0  0
 13 14  1  0  0  0
 14 15  2  0  0  0
 13  1  1  0  0  0
  1  2  2  0  0  0
  2  3  1  0  0  0
  3  4  2  0  0  0
  4  5  1  0  0  0
  5 19  1  0  0  0
 19 21  1  0  0  0
 21 22  1  0  0  0
 22 23  1  0  0  0
 23 24  1  0  0  0
 24 25  1  0  0  0
  5  6  2  0  0  0
 15  7  1  0  0  0
  6  1  1  0  0  0
 15 10  1  0  0  0
 25 21  1  0  0  0
  9 16  1  0  0  0
 19 20  1  0  0  0
 25 26  1  0  0  0
M  END
> <minimizedAffinity>
-8.34538

> <CNNscore>
0.4235553145

> <CNNaffinity>
6.3226876259

> <CNN_VS>
2.6780078411

> <CNNaffinity_variance>
0.2299321592

$$$$
[H]C(=O)c1nn([H])c2c([H])c([H])c(-c3c([H])c([H])nc(N([H])[C@@]4([H])N([H])C([H])([H])C([H])([H])C4([H])[H])c3[H])c([H])c12


 26 29  0  0  0  0  0  0  0  0999 V2000
   53.7385   -6.2289   -5.0203 C   0  0  0  0  0  0  0  0  0  0  0  0
   54.8070   -7.0174   -4.6624 C   0  0  0  0  0  0  0  0  0  0  0  0
   54.7675   -7.7676   -3.4810 C   0  0  0  0  0  0  0  0  0  0  0  0
   53.6649   -7.6956   -2.7131 N   0  0  0  0  0  0  0  0  0  0  0  0
   52.6034   -6.9467   -3.0156 C   0  0  0  0  0  0  0  0  0  0  0  0
   52.6414   -6.2013   -4.1887 C   0  0  0  0  0  0  0  0  0  0  0  0
   51.7967   -2.9375   -8.2062 C   0  0  0  0  0  0  0  0  0  0  0  0
   52.3564   -2.5198   -9.3695 N   0  0  0  0  0  0  0  0  0  0  0  0
   53.5049   -3.1130   -9.5509 N   0  0  0  0  0  0  0  0  0  0  0  0
   53.7504   -3.9456   -8.5163 C   0  0  0  0  0  0  0  0  0  0  0  0
   54.8108   -4.7837   -8.2408 C   0  0  0  0  0  0  0  0  0  0  0  0
   54.8044   -5.5283   -7.1008 C   0  0  0  0  0  0  0  0  0  0  0  0
   53.7320   -5.4324   -6.2346 C   0  0  0  0  0  0  0  0  0  0  0  0
   52.6602   -4.5965   -6.4962 C   0  0  0  0  0  0  0  0  0  0  0  0
   52.6776   -3.8506   -7.6486 C   0  0  0  0  0  0  0  0  0  0  0  0
   54.1680   -2.9976  -10.3520 H   0  0  0  0  0  0  0  0  0  0  0  0
   49.6635   -3.3426   -7.3717 O   0  0  0  0  0  0  0  0  0  0  0  0
   50.5189   -2.4951   -7.6743 C   0  0  0  0  0  0  0  0  0  0  0  0
   51.4478   -6.8709   -2.2120 N   0  0  0  0  0  0  0  0  0  0  0  0
   50.6680   -6.1990   -2.4576 H   0  0  0  0  0  0  0  0  0  0  0  0
   51.3591   -7.7311   -1.0514 C   0  0  0  0  0  0  0  0  0  0  0  0
   51.4154   -9.1618   -1.4792 C   0  0  0  0  0  0  0  0  0  0  0  0
   50.4965   -9.8793   -0.5071 C   0  0  0  0  0  0  0  0  0  0  0  0
   49.5521   -8.8093   -0.0285 C   0  0  0  0  0  0  0  0  0  0  0  0
   50.1356   -7.5406   -0.3151 N   0  0  0  0  0  0  0  0  0  0  0  0
   49.4849   -6.8646   -0.7705 H   0  0  0  0  0  0  0  0  0  0  0  0
 17 18  2  0  0  0
 18  7  1  0  0  0
  7  8  2  0  0  0
  8  9  1  0  0  0
  9 10  1  0  0  0
 10 11  2  0  0  0
 11 12  1  0  0  0
 12 13  2  0  0  0
 13 14  1  0  0  0
 14 15  2  0  0  0
 13  1  1  0  0  0
  1  2  2  0  0  0
  2  3  1  0  0  0
  3  4  2  0  0  0
  4  5  1  0  0  0
  5 19  1  0  0  0
 19 21  1  0  0  0
 21 22  1  0  0  0
 22 23  1  0  0  0
 23 24  1  0  0  0
 24 25  1  0  0  0
  5  6  2  0  0  0
 15  7  1  0  0  0
  6  1  1  0  0  0
 15 10  1  0  0  0
 25 21  1  0  0  0
  9 16  1  0  0  0
 19 20  1  0  0  0
 25 26  1  0  0  0
M  END
> <minimizedAffinity>
-8.45622

> <CNNscore>
0.4228352904

> <CNNaffinity>
6.2465753555

> <CNN_VS>
2.6412725449

> <CNNaffinity_variance>
0.1325796098

$$$$
[H]C(=O)c1nn([H])c2c([H])c([H])c(-c3c([H])c([H])nc(N([H])[C@@]4([H])N([H])C([H])([H])C([H])([H])C4([H])[H])c3[H])c([H])c12


 26 29  0  0  0  0  0  0  0  0999 V2000
   54.8162   -4.3382   -7.9675 C   0  0  0  0  0  0  0  0  0  0  0  0
   55.6445   -4.1303   -9.0456 C   0  0  0  0  0  0  0  0  0  0  0  0
   56.9246   -4.6966   -9.0731 C   0  0  0  0  0  0  0  0  0  0  0  0
   57.3175   -5.4427   -8.0245 N   0  0  0  0  0  0  0  0  0  0  0  0
   56.5528   -5.6741   -6.9564 C   0  0  0  0  0  0  0  0  0  0  0  0
   55.2812   -5.1123   -6.9280 C   0  0  0  0  0  0  0  0  0  0  0  0
   50.2171   -3.9462   -6.1104 C   0  0  0  0  0  0  0  0  0  0  0  0
   49.2574   -3.0786   -6.5195 N   0  0  0  0  0  0  0  0  0  0  0  0
   49.7106   -2.3384   -7.4945 N   0  0  0  0  0  0  0  0  0  0  0  0
   50.9863   -2.6865   -7.7690 C   0  0  0  0  0  0  0  0  0  0  0  0
   51.8909   -2.2117   -8.6958 C   0  0  0  0  0  0  0  0  0  0  0  0
   53.1389   -2.7525   -8.7598 C   0  0  0  0  0  0  0  0  0  0  0  0
   53.4809   -3.7721   -7.8920 C   0  0  0  0  0  0  0  0  0  0  0  0
   52.5852   -4.2600   -6.9564 C   0  0  0  0  0  0  0  0  0  0  0  0
   51.3299   -3.7071   -6.9012 C   0  0  0  0  0  0  0  0  0  0  0  0
   49.2074   -1.5827   -8.0146 H   0  0  0  0  0  0  0  0  0  0  0  0
   49.5821   -4.5743   -3.9626 O   0  0  0  0  0  0  0  0  0  0  0  0
   50.0756   -4.9255   -5.0464 C   0  0  0  0  0  0  0  0  0  0  0  0
   56.9634   -6.4558   -5.8577 N   0  0  0  0  0  0  0  0  0  0  0  0
   57.8804   -6.9829   -5.8885 H   0  0  0  0  0  0  0  0  0  0  0  0
   56.1021   -6.5161   -4.6960 C   0  0  0  0  0  0  0  0  0  0  0  0
   56.9142   -6.3248   -3.4562 C   0  0  0  0  0  0  0  0  0  0  0  0
   56.2425   -7.2166   -2.4278 C   0  0  0  0  0  0  0  0  0  0  0  0
   55.5373   -8.2641   -3.2471 C   0  0  0  0  0  0  0  0  0  0  0  0
   55.4166   -7.7781   -4.5818 N   0  0  0  0  0  0  0  0  0  0  0  0
   55.6996   -8.4653   -5.3136 H   0  0  0  0  0  0  0  0  0  0  0  0
 17 18  2  0  0  0
 18  7  1  0  0  0
  7  8  2  0  0  0
  8  9  1  0  0  0
  9 10  1  0  0  0
 10 11  2  0  0  0
 11 12  1  0  0  0
 12 13  2  0  0  0
 13 14  1  0  0  0
 14 15  2  0  0  0
 13  1  1  0  0  0
  1  2  2  0  0  0
  2  3  1  0  0  0
  3  4  2  0  0  0
  4  5  1  0  0  0
  5 19  1  0  0  0
 19 21  1  0  0  0
 21 22  1  0  0  0
 22 23  1  0  0  0
 23 24  1  0  0  0
 24 25  1  0  0  0
  5  6  2  0  0  0
 15  7  1  0  0  0
  6  1  1  0  0  0
 15 10  1  0  0  0
 25 21  1  0  0  0
  9 16  1  0  0  0
 19 20  1  0  0  0
 25 26  1  0  0  0
M  END
> <minimizedAffinity>
-9.00872

> <CNNscore>
0.4208942950

> <CNNaffinity>
6.4874839783

> <CNN_VS>
2.7305450439

> <CNNaffinity_variance>
0.1576649100

$$$$
[H]C(=O)c1nn([H])c2c([H])c([H])c(-c3c([H])c([H])nc(N([H])[C@@]4([H])N([H])C([H])([H])C([H])([H])C4([H])[H])c3[H])c([H])c12


 26 29  0  0  0  0  0  0  0  0999 V2000
   53.9110   -3.8812   -8.6054 C   0  0  0  0  0  0  0  0  0  0  0  0
   53.2316   -2.7618   -9.0261 C   0  0  0  0  0  0  0  0  0  0  0  0
   51.9622   -2.4707   -8.5123 C   0  0  0  0  0  0  0  0  0  0  0  0
   51.4311   -3.3094   -7.6041 N   0  0  0  0  0  0  0  0  0  0  0  0
   52.0486   -4.4068   -7.1640 C   0  0  0  0  0  0  0  0  0  0  0  0
   53.3095   -4.6969   -7.6735 C   0  0  0  0  0  0  0  0  0  0  0  0
   57.3868   -4.2942  -12.1412 C   0  0  0  0  0  0  0  0  0  0  0  0
   58.6490   -4.7639  -11.9753 N   0  0  0  0  0  0  0  0  0  0  0  0
   58.8384   -5.1054  -10.7297 N   0  0  0  0  0  0  0  0  0  0  0  0
   57.7106   -4.8757  -10.0231 C   0  0  0  0  0  0  0  0  0  0  0  0
   57.4039   -5.0654   -8.6917 C   0  0  0  0  0  0  0  0  0  0  0  0
   56.1639   -4.7416   -8.2317 C   0  0  0  0  0  0  0  0  0  0  0  0
   55.2289   -4.2261   -9.1089 C   0  0  0  0  0  0  0  0  0  0  0  0
   55.5205   -4.0295  -10.4476 C   0  0  0  0  0  0  0  0  0  0  0  0
   56.7738   -4.3597  -10.9000 C   0  0  0  0  0  0  0  0  0  0  0  0
   59.7056   -5.4990  -10.2964 H   0  0  0  0  0  0  0  0  0  0  0  0
   57.4219   -4.0398  -14.4532 O   0  0  0  0  0  0  0  0  0  0  0  0
   56.8166   -3.8216  -13.3913 C   0  0  0  0  0  0  0  0  0  0  0  0
   51.4932   -5.2858   -6.2123 N   0  0  0  0  0  0  0  0  0  0  0  0
   51.2874   -6.2917   -6.4685 H   0  0  0  0  0  0  0  0  0  0  0  0
   51.2153   -4.7775   -4.8859 C   0  0  0  0  0  0  0  0  0  0  0  0
   51.2751   -5.8948   -3.8954 C   0  0  0  0  0  0  0  0  0  0  0  0
   50.2062   -5.5476   -2.8750 C   0  0  0  0  0  0  0  0  0  0  0  0
   49.2466   -4.6645   -3.6267 C   0  0  0  0  0  0  0  0  0  0  0  0
   49.9111   -4.1733   -4.7883 N   0  0  0  0  0  0  0  0  0  0  0  0
   49.3542   -4.2574   -5.6662 H   0  0  0  0  0  0  0  0  0  0  0  0
 17 18  2  0  0  0
 18  7  1  0  0  0
  7  8  2  0  0  0
  8  9  1  0  0  0
  9 10  1  0  0  0
 10 11  2  0  0  0
 11 12  1  0  0  0
 12 13  2  0  0  0
 13 14  1  0  0  0
 14 15  2  0  0  0
 13  1  1  0  0  0
  1  2  2  0  0  0
  2  3  1  0  0  0
  3  4  2  0  0  0
  4  5  1  0  0  0
  5 19  1  0  0  0
 19 21  1  0  0  0
 21 22  1  0  0  0
 22 23  1  0  0  0
 23 24  1  0  0  0
 24 25  1  0  0  0
  5  6  2  0  0  0
 15  7  1  0  0  0
  6  1  1  0  0  0
 15 10  1  0  0  0
 25 21  1  0  0  0
  9 16  1  0  0  0
 19 20  1  0  0  0
 25 26  1  0  0  0
M  END
> <minimizedAffinity>
-9.69754

> <CNNscore>
0.3563713729

> <CNNaffinity>
6.1786537170

> <CNN_VS>
2.2018952370

> <CNNaffinity_variance>
0.0954338983

$$$$
[H]C(=O)c1nn([H])c2c([H])c([H])c(-c3c([H])c([H])nc(N([H])[C@@]4([H])N([H])C([H])([H])C([H])([H])C4([H])[H])c3[H])c([H])c12


 26 29  0  0  0  0  0  0  0  0999 V2000
   52.0256   -3.9929   -7.1103 C   0  0  0  0  0  0  0  0  0  0  0  0
   51.2857   -2.8966   -7.4874 C   0  0  0  0  0  0  0  0  0  0  0  0
   51.5894   -2.2116   -8.6700 C   0  0  0  0  0  0  0  0  0  0  0  0
   52.6163   -2.6523   -9.4197 N   0  0  0  0  0  0  0  0  0  0  0  0
   53.3637   -3.7092   -9.0981 C   0  0  0  0  0  0  0  0  0  0  0  0
   53.0628   -4.3904   -7.9238 C   0  0  0  0  0  0  0  0  0  0  0  0
   53.2272   -6.9872   -3.3229 C   0  0  0  0  0  0  0  0  0  0  0  0
   52.4012   -7.3900   -2.3247 N   0  0  0  0  0  0  0  0  0  0  0  0
   51.2134   -6.8757   -2.4929 N   0  0  0  0  0  0  0  0  0  0  0  0
   51.2063   -6.1132   -3.6076 C   0  0  0  0  0  0  0  0  0  0  0  0
   50.2118   -5.3688   -4.2074 C   0  0  0  0  0  0  0  0  0  0  0  0
   50.4807   -4.6791   -5.3502 C   0  0  0  0  0  0  0  0  0  0  0  0
   51.7502   -4.7358   -5.8931 C   0  0  0  0  0  0  0  0  0  0  0  0
   52.7591   -5.4779   -5.3040 C   0  0  0  0  0  0  0  0  0  0  0  0
   52.4764   -6.1691   -4.1521 C   0  0  0  0  0  0  0  0  0  0  0  0
   50.3674   -7.0021   -1.8902 H   0  0  0  0  0  0  0  0  0  0  0  0
   54.9742   -8.0236   -4.4566 O   0  0  0  0  0  0  0  0  0  0  0  0
   54.6244   -7.3589   -3.4679 C   0  0  0  0  0  0  0  0  0  0  0  0
   54.4393   -4.1718   -9.8830 N   0  0  0  0  0  0  0  0  0  0  0  0
   54.2580   -4.7105  -10.7756 H   0  0  0  0  0  0  0  0  0  0  0  0
   55.7872   -3.8909   -9.4369 C   0  0  0  0  0  0  0  0  0  0  0  0
   56.7649   -4.6340  -10.2884 C   0  0  0  0  0  0  0  0  0  0  0  0
   57.8825   -5.0107   -9.3327 C   0  0  0  0  0  0  0  0  0  0  0  0
   57.2270   -5.0186   -7.9777 C   0  0  0  0  0  0  0  0  0  0  0  0
   56.0090   -4.2834   -8.0686 N   0  0  0  0  0  0  0  0  0  0  0  0
   55.1874   -4.7642   -7.6424 H   0  0  0  0  0  0  0  0  0  0  0  0
 17 18  2  0  0  0
 18  7  1  0  0  0
  7  8  2  0  0  0
  8  9  1  0  0  0
  9 10  1  0  0  0
 10 11  2  0  0  0
 11 12  1  0  0  0
 12 13  2  0  0  0
 13 14  1  0  0  0
 14 15  2  0  0  0
 13  1  1  0  0  0
  1  2  2  0  0  0
  2  3  1  0  0  0
  3  4  2  0  0  0
  4  5  1  0  0  0
  5 19  1  0  0  0
 19 21  1  0  0  0
 21 22  1  0  0  0
 22 23  1  0  0  0
 23 24  1  0  0  0
 24 25  1  0  0  0
  5  6  2  0  0  0
 15  7  1  0  0  0
  6  1  1  0  0  0
 15 10  1  0  0  0
 25 21  1  0  0  0
  9 16  1  0  0  0
 19 20  1  0  0  0
 25 26  1  0  0  0
M  END
> <minimizedAffinity>
-9.16531

> <CNNscore>
0.3526810408

> <CNNaffinity>
6.2815523148

> <CNN_VS>
2.2153844833

> <CNNaffinity_variance>
0.2227799445

$$$$
[H]OC([H])([H])c1c([H])c([H])c(C(F)(F)F)c(-c2nc3c(N4C([H])([H])[C@]([H])(C([H])([H])[H])N([H])[C@]([H])(C([H])([H])[H])C4([H])[H])c([H])c([H])c([H])c3n2[H])c1[H]


 32 35  0  0  0  0  0  0  0  0999 V2000
   51.2621   -4.5107   -5.8993 C   0  0  0  0  0  0  0  0  0  0  0  0
   50.0496   -3.8245   -5.7910 C   0  0  0  0  0  0  0  0  0  0  0  0
   49.7312   -2.8217   -6.6798 C   0  0  0  0  0  0  0  0  0  0  0  0
   50.6496   -2.5254   -7.6716 C   0  0  0  0  0  0  0  0  0  0  0  0
   51.8438   -3.2020   -7.7774 C   0  0  0  0  0  0  0  0  0  0  0  0
   52.9159   -3.1287   -8.6321 N   0  0  0  0  0  0  0  0  0  0  0  0
   53.8633   -3.9945   -8.3464 C   0  0  0  0  0  0  0  0  0  0  0  0
   53.3594   -4.6734   -7.2278 N   0  0  0  0  0  0  0  0  0  0  0  0
   52.1693   -4.1987   -6.9007 C   0  0  0  0  0  0  0  0  0  0  0  0
   52.8623   -2.4421   -9.4057 H   0  0  0  0  0  0  0  0  0  0  0  0
   51.6577   -7.6142   -2.2795 C   0  0  0  0  0  0  0  0  0  0  0  0
   51.4956   -6.1718   -2.7086 C   0  0  0  0  0  0  0  0  0  0  0  0
   50.7346   -6.1044   -4.0082 C   0  0  0  0  0  0  0  0  0  0  0  0
   51.6202   -5.5450   -5.0041 N   0  0  0  0  0  0  0  0  0  0  0  0
   52.9458   -6.1204   -5.0404 C   0  0  0  0  0  0  0  0  0  0  0  0
   53.6357   -5.8102   -3.7439 C   0  0  0  0  0  0  0  0  0  0  0  0
   54.5834   -6.9127   -3.3198 C   0  0  0  0  0  0  0  0  0  0  0  0
   52.7196   -5.4379   -2.7138 N   0  0  0  0  0  0  0  0  0  0  0  0
   53.1295   -5.4587   -1.7772 H   0  0  0  0  0  0  0  0  0  0  0  0
   55.1934   -4.3016   -8.8480 C   0  0  0  0  0  0  0  0  0  0  0  0
   55.4780   -3.9672  -10.1892 C   0  0  0  0  0  0  0  0  0  0  0  0
   56.6227   -4.2660  -10.8385 C   0  0  0  0  0  0  0  0  0  0  0  0
   57.5846   -4.9503  -10.1347 C   0  0  0  0  0  0  0  0  0  0  0  0
   57.3795   -5.3087   -8.8273 C   0  0  0  0  0  0  0  0  0  0  0  0
   56.1577   -4.9741   -8.1764 C   0  0  0  0  0  0  0  0  0  0  0  0
   56.0953   -5.3797   -6.7704 C   0  0  0  0  0  0  0  0  0  0  0  0
   55.8097   -4.3432   -5.9210 F   0  0  0  0  0  0  0  0  0  0  0  0
   55.2998   -6.5081   -6.5820 F   0  0  0  0  0  0  0  0  0  0  0  0
   57.3654   -5.8340   -6.3645 F   0  0  0  0  0  0  0  0  0  0  0  0
   56.8706   -3.8868  -12.2513 C   0  0  0  0  0  0  0  0  0  0  0  0
   57.7399   -4.7360  -12.8897 O   0  0  0  0  0  0  0  0  0  0  0  0
   57.2861   -5.2189  -13.6312 H   0  0  0  0  0  0  0  0  0  0  0  0
 11 12  1  0  0  0
 12 13  1  0  0  0
 13 14  1  0  0  0
 14 15  1  0  0  0
 15 16  1  0  0  0
 16 17  1  0  0  0
 16 18  1  0  0  0
 14  1  1  0  0  0
  1  2  2  0  0  0
  2  3  1  0  0  0
  3  4  2  0  0  0
  4  5  1  0  0  0
  5  6  1  0  0  0
  6  7  1  0  0  0
  7  8  2  0  0  0
  8  9  1  0  0  0
  7 20  1  0  0  0
 20 21  2  0  0  0
 21 22  1  0  0  0
 22 30  1  0  0  0
 30 31  1  0  0  0
 22 23  2  0  0  0
 23 24  1  0  0  0
 24 25  2  0  0  0
 25 26  1  0  0  0
 26 27  1  0  0  0
 26 28  1  0  0  0
 26 29  1  0  0  0
 18 12  1  0  0  0
  9  1  1  0  0  0
 25 20  1  0  0  0
  9  5  2  0  0  0
 18 19  1  0  0  0
  6 10  1  0  0  0
 31 32  1  0  0  0
M  END
> <minimizedAffinity>
-11.30536

> <CNNscore>
0.7394587994

> <CNNaffinity>
7.5510568619

> <CNN_VS>
5.5836954117

> <CNNaffinity_variance>
0.1211454496

$$$$
[H]OC([H])([H])c1c([H])c([H])c(C(F)(F)F)c(-c2nc3c(N4C([H])([H])[C@]([H])(C([H])([H])[H])N([H])[C@]([H])(C([H])([H])[H])C4([H])[H])c([H])c([H])c([H])c3n2[H])c1[H]


 32 35  0  0  0  0  0  0  0  0999 V2000
   56.4588   -5.6502   -6.8750 C   0  0  0  0  0  0  0  0  0  0  0  0
   57.6563   -5.7102   -7.5928 C   0  0  0  0  0  0  0  0  0  0  0  0
   57.7531   -5.1375   -8.8416 C   0  0  0  0  0  0  0  0  0  0  0  0
   56.6302   -4.5084   -9.3497 C   0  0  0  0  0  0  0  0  0  0  0  0
   55.4510   -4.4499   -8.6419 C   0  0  0  0  0  0  0  0  0  0  0  0
   54.2120   -3.9099   -8.8841 N   0  0  0  0  0  0  0  0  0  0  0  0
   53.3642   -4.1014   -7.8975 C   0  0  0  0  0  0  0  0  0  0  0  0
   54.1166   -4.8147   -6.9535 N   0  0  0  0  0  0  0  0  0  0  0  0
   55.3444   -5.0149   -7.4020 C   0  0  0  0  0  0  0  0  0  0  0  0
   54.0808   -3.3999   -9.7759 H   0  0  0  0  0  0  0  0  0  0  0  0
   55.2162   -8.1720   -3.0036 C   0  0  0  0  0  0  0  0  0  0  0  0
   54.7587   -7.3452   -4.1859 C   0  0  0  0  0  0  0  0  0  0  0  0
   55.7200   -7.5147   -5.3347 C   0  0  0  0  0  0  0  0  0  0  0  0
   56.3251   -6.2273   -5.5911 N   0  0  0  0  0  0  0  0  0  0  0  0
   56.8069   -5.5305   -4.4197 C   0  0  0  0  0  0  0  0  0  0  0  0
   55.6324   -5.1982   -3.5462 C   0  0  0  0  0  0  0  0  0  0  0  0
   55.9860   -5.2263   -2.0738 C   0  0  0  0  0  0  0  0  0  0  0  0
   54.4816   -5.9845   -3.8565 N   0  0  0  0  0  0  0  0  0  0  0  0
   53.7594   -5.9527   -3.1334 H   0  0  0  0  0  0  0  0  0  0  0  0
   51.9586   -3.8224   -7.6499 C   0  0  0  0  0  0  0  0  0  0  0  0
   51.5258   -2.4857   -7.7817 C   0  0  0  0  0  0  0  0  0  0  0  0
   50.2842   -2.0392   -7.4982 C   0  0  0  0  0  0  0  0  0  0  0  0
   49.3723   -2.9623   -7.0451 C   0  0  0  0  0  0  0  0  0  0  0  0
   49.7201   -4.2796   -6.8922 C   0  0  0  0  0  0  0  0  0  0  0  0
   51.0409   -4.7123   -7.2031 C   0  0  0  0  0  0  0  0  0  0  0  0
   51.2571   -6.1511   -7.0353 C   0  0  0  0  0  0  0  0  0  0  0  0
   52.0149   -6.7039   -8.0340 F   0  0  0  0  0  0  0  0  0  0  0  0
   51.6848   -6.4734   -5.7489 F   0  0  0  0  0  0  0  0  0  0  0  0
   50.0182   -6.8164   -7.1176 F   0  0  0  0  0  0  0  0  0  0  0  0
   49.8817   -0.6202   -7.6582 C   0  0  0  0  0  0  0  0  0  0  0  0
   48.8482   -0.4529   -8.5460 O   0  0  0  0  0  0  0  0  0  0  0  0
   48.0386   -0.1011   -8.0881 H   0  0  0  0  0  0  0  0  0  0  0  0
 11 12  1  0  0  0
 12 13  1  0  0  0
 13 14  1  0  0  0
 14 15  1  0  0  0
 15 16  1  0  0  0
 16 17  1  0  0  0
 16 18  1  0  0  0
 14  1  1  0  0  0
  1  2  2  0  0  0
  2  3  1  0  0  0
  3  4  2  0  0  0
  4  5  1  0  0  0
  5  6  1  0  0  0
  6  7  1  0  0  0
  7  8  2  0  0  0
  8  9  1  0  0  0
  7 20  1  0  0  0
 20 21  2  0  0  0
 21 22  1  0  0  0
 22 30  1  0  0  0
 30 31  1  0  0  0
 22 23  2  0  0  0
 23 24  1  0  0  0
 24 25  2  0  0  0
 25 26  1  0  0  0
 26 27  1  0  0  0
 26 28  1  0  0  0
 26 29  1  0  0  0
 18 12  1  0  0  0
  9  1  1  0  0  0
 25 20  1  0  0  0
  9  5  2  0  0  0
 18 19  1  0  0  0
  6 10  1  0  0  0
 31 32  1  0  0  0
M  END
> <minimizedAffinity>
-6.83301

> <CNNscore>
0.5305963159

> <CNNaffinity>
7.1697196960

> <CNN_VS>
3.8042268753

> <CNNaffinity_variance>
0.2278687656

$$$$
[H]OC([H])([H])c1c([H])c([H])c(C(F)(F)F)c(-c2nc3c(N4C([H])([H])[C@]([H])(C([H])([H])[H])N([H])[C@]([H])(C([H])([H])[H])C4([H])[H])c([H])c([H])c([H])c3n2[H])c1[H]


 32 35  0  0  0  0  0  0  0  0999 V2000
   53.0805   -4.6384   -7.0097 C   0  0  0  0  0  0  0  0  0  0  0  0
   51.8834   -3.9183   -6.9723 C   0  0  0  0  0  0  0  0  0  0  0  0
   51.5857   -3.0038   -7.9582 C   0  0  0  0  0  0  0  0  0  0  0  0
   52.5089   -2.8298   -8.9743 C   0  0  0  0  0  0  0  0  0  0  0  0
   53.6878   -3.5397   -9.0103 C   0  0  0  0  0  0  0  0  0  0  0  0
   54.7600   -3.5768   -9.8672 N   0  0  0  0  0  0  0  0  0  0  0  0
   55.6886   -4.4298   -9.4947 C   0  0  0  0  0  0  0  0  0  0  0  0
   55.1716   -4.9807   -8.3134 N   0  0  0  0  0  0  0  0  0  0  0  0
   53.9927   -4.4494   -8.0369 C   0  0  0  0  0  0  0  0  0  0  0  0
   54.7202   -2.9711  -10.7064 H   0  0  0  0  0  0  0  0  0  0  0  0
   53.5623   -7.2404   -3.0237 C   0  0  0  0  0  0  0  0  0  0  0  0
   53.5428   -5.8631   -3.6510 C   0  0  0  0  0  0  0  0  0  0  0  0
   52.6171   -5.8532   -4.8408 C   0  0  0  0  0  0  0  0  0  0  0  0
   53.4172   -5.5844   -6.0142 N   0  0  0  0  0  0  0  0  0  0  0  0
   54.6295   -6.3641   -6.1230 C   0  0  0  0  0  0  0  0  0  0  0  0
   55.5379   -5.9940   -4.9870 C   0  0  0  0  0  0  0  0  0  0  0  0
   56.3737   -7.1655   -4.5152 C   0  0  0  0  0  0  0  0  0  0  0  0
   54.8435   -5.3424   -3.9230 N   0  0  0  0  0  0  0  0  0  0  0  0
   55.3787   -5.3002   -3.0527 H   0  0  0  0  0  0  0  0  0  0  0  0
   57.0109   -4.8152   -9.9616 C   0  0  0  0  0  0  0  0  0  0  0  0
   57.8999   -5.3709   -9.0169 C   0  0  0  0  0  0  0  0  0  0  0  0
   59.1881   -5.6932   -9.2578 C   0  0  0  0  0  0  0  0  0  0  0  0
   59.6683   -5.4599  -10.5242 C   0  0  0  0  0  0  0  0  0  0  0  0
   58.8631   -4.9225  -11.4951 C   0  0  0  0  0  0  0  0  0  0  0  0
   57.5081   -4.5965  -11.2020 C   0  0  0  0  0  0  0  0  0  0  0  0
   56.7554   -4.0732  -12.3442 C   0  0  0  0  0  0  0  0  0  0  0  0
   55.6719   -4.8434  -12.6762 F   0  0  0  0  0  0  0  0  0  0  0  0
   56.4714   -2.7155  -12.2110 F   0  0  0  0  0  0  0  0  0  0  0  0
   57.5761   -4.0996  -13.4887 F   0  0  0  0  0  0  0  0  0  0  0  0
   60.0790   -6.2787   -8.2261 C   0  0  0  0  0  0  0  0  0  0  0  0
   60.7258   -7.4106   -8.6559 O   0  0  0  0  0  0  0  0  0  0  0  0
   61.7090   -7.2663   -8.6943 H   0  0  0  0  0  0  0  0  0  0  0  0
 11 12  1  0  0  0
 12 13  1  0  0  0
 13 14  1  0  0  0
 14 15  1  0  0  0
 15 16  1  0  0  0
 16 17  1  0  0  0
 16 18  1  0  0  0
 14  1  1  0  0  0
  1  2  2  0  0  0
  2  3  1  0  0  0
  3  4  2  0  0  0
  4  5  1  0  0  0
  5  6  1  0  0  0
  6  7  1  0  0  0
  7  8  2  0  0  0
  8  9  1  0  0  0
  7 20  1  0  0  0
 20 21  2  0  0  0
 21 22  1  0  0  0
 22 30  1  0  0  0
 30 31  1  0  0  0
 22 23  2  0  0  0
 23 24  1  0  0  0
 24 25  2  0  0  0
 25 26  1  0  0  0
 26 27  1  0  0  0
 26 28  1  0  0  0
 26 29  1  0  0  0
 18 12  1  0  0  0
  9  1  1  0  0  0
 25 20  1  0  0  0
  9  5  2  0  0  0
 18 19  1  0  0  0
  6 10  1  0  0  0
 31 32  1  0  0  0
M  END
> <minimizedAffinity>
-8.98250

> <CNNscore>
0.3766081631

> <CNNaffinity>
6.7593855858

> <CNN_VS>
2.5456397533

> <CNNaffinity_variance>
0.0350957215

$$$$
[H]OC([H])([H])c1c([H])c([H])c(C(F)(F)F)c(-c2nc3c(N4C([H])([H])[C@]([H])(C([H])([H])[H])N([H])[C@]([H])(C([H])([H])[H])C4([H])[H])c([H])c([H])c([H])c3n2[H])c1[H]


 32 35  0  0  0  0  0  0  0  0999 V2000
   50.5272   -4.5738   -5.2488 C   0  0  0  0  0  0  0  0  0  0  0  0
   49.3355   -3.8469   -5.3143 C   0  0  0  0  0  0  0  0  0  0  0  0
   49.1442   -2.9038   -6.2995 C   0  0  0  0  0  0  0  0  0  0  0  0
   50.1675   -2.7081   -7.2103 C   0  0  0  0  0  0  0  0  0  0  0  0
   51.3411   -3.4247   -7.1449 C   0  0  0  0  0  0  0  0  0  0  0  0
   52.4956   -3.4454   -7.8880 N   0  0  0  0  0  0  0  0  0  0  0  0
   53.3777   -4.3146   -7.4462 C   0  0  0  0  0  0  0  0  0  0  0  0
   52.7400   -4.8942   -6.3401 N   0  0  0  0  0  0  0  0  0  0  0  0
   51.5409   -4.3628   -6.1712 C   0  0  0  0  0  0  0  0  0  0  0  0
   52.5446   -2.8167   -8.7096 H   0  0  0  0  0  0  0  0  0  0  0  0
   50.8080   -7.1550   -1.2301 C   0  0  0  0  0  0  0  0  0  0  0  0
   50.9937   -5.8076   -1.8940 C   0  0  0  0  0  0  0  0  0  0  0  0
   50.0044   -5.6486   -3.0203 C   0  0  0  0  0  0  0  0  0  0  0  0
   50.7562   -5.5490   -4.2508 N   0  0  0  0  0  0  0  0  0  0  0  0
   51.7974   -6.5379   -4.4165 C   0  0  0  0  0  0  0  0  0  0  0  0
   52.8345   -6.3209   -3.3535 C   0  0  0  0  0  0  0  0  0  0  0  0
   53.4760   -7.6171   -2.9042 C   0  0  0  0  0  0  0  0  0  0  0  0
   52.3448   -5.5367   -2.2653 N   0  0  0  0  0  0  0  0  0  0  0  0
   52.9382   -5.5784   -1.4336 H   0  0  0  0  0  0  0  0  0  0  0  0
   54.7394   -4.6958   -7.7856 C   0  0  0  0  0  0  0  0  0  0  0  0
   55.5011   -5.3476   -6.7923 C   0  0  0  0  0  0  0  0  0  0  0  0
   56.8033   -5.6830   -6.9067 C   0  0  0  0  0  0  0  0  0  0  0  0
   57.4339   -5.3625   -8.0851 C   0  0  0  0  0  0  0  0  0  0  0  0
   56.7582   -4.7292   -9.0960 C   0  0  0  0  0  0  0  0  0  0  0  0
   55.3835   -4.3924   -8.9374 C   0  0  0  0  0  0  0  0  0  0  0  0
   54.7800   -3.7608  -10.1129 C   0  0  0  0  0  0  0  0  0  0  0  0
   55.6344   -3.6790  -11.1810 F   0  0  0  0  0  0  0  0  0  0  0  0
   53.5327   -4.3010  -10.4197 F   0  0  0  0  0  0  0  0  0  0  0  0
   54.4631   -2.4230   -9.8063 F   0  0  0  0  0  0  0  0  0  0  0  0
   57.5561   -6.3714   -5.8294 C   0  0  0  0  0  0  0  0  0  0  0  0
   56.7565   -7.1486   -5.0289 O   0  0  0  0  0  0  0  0  0  0  0  0
   56.9957   -8.1102   -5.1126 H   0  0  0  0  0  0  0  0  0  0  0  0
 11 12  1  0  0  0
 12 13  1  0  0  0
 13 14  1  0  0  0
 14 15  1  0  0  0
 15 16  1  0  0  0
 16 17  1  0  0  0
 16 18  1  0  0  0
 14  1  1  0  0  0
  1  2  2  0  0  0
  2  3  1  0  0  0
  3  4  2  0  0  0
  4  5  1  0  0  0
  5  6  1  0  0  0
  6  7  1  0  0  0
  7  8  2  0  0  0
  8  9  1  0  0  0
  7 20  1  0  0  0
 20 21  2  0  0  0
 21 22  1  0  0  0
 22 30  1  0  0  0
 30 31  1  0  0  0
 22 23  2  0  0  0
 23 24  1  0  0  0
 24 25  2  0  0  0
 25 26  1  0  0  0
 26 27  1  0  0  0
 26 28  1  0  0  0
 26 29  1  0  0  0
 18 12  1  0  0  0
  9  1  1  0  0  0
 25 20  1  0  0  0
  9  5  2  0  0  0
 18 19  1  0  0  0
  6 10  1  0  0  0
 31 32  1  0  0  0
M  END
> <minimizedAffinity>
-8.35747

> <CNNscore>
0.3650177717

> <CNNaffinity>
6.9050545692

> <CNN_VS>
2.5204675198

> <CNNaffinity_variance>
0.2503029704

$$$$
[H]OC([H])([H])c1c([H])c([H])c(C(F)(F)F)c(-c2nc3c(N4C([H])([H])[C@]([H])(C([H])([H])[H])N([H])[C@]([H])(C([H])([H])[H])C4([H])[H])c([H])c([H])c([H])c3n2[H])c1[H]


 32 35  0  0  0  0  0  0  0  0999 V2000
   53.3583   -5.3185   -5.8713 C   0  0  0  0  0  0  0  0  0  0  0  0
   52.0509   -5.0863   -5.4358 C   0  0  0  0  0  0  0  0  0  0  0  0
   51.1390   -4.4643   -6.2594 C   0  0  0  0  0  0  0  0  0  0  0  0
   51.5652   -4.0836   -7.5197 C   0  0  0  0  0  0  0  0  0  0  0  0
   52.8533   -4.3128   -7.9478 C   0  0  0  0  0  0  0  0  0  0  0  0
   53.5391   -4.0543   -9.1090 N   0  0  0  0  0  0  0  0  0  0  0  0
   54.7891   -4.4600   -9.0708 C   0  0  0  0  0  0  0  0  0  0  0  0
   54.9118   -5.0214   -7.7918 N   0  0  0  0  0  0  0  0  0  0  0  0
   53.7658   -4.9293   -7.1384 C   0  0  0  0  0  0  0  0  0  0  0  0
   53.0151   -3.6063   -9.8819 H   0  0  0  0  0  0  0  0  0  0  0  0
   55.8653   -8.2542   -3.0450 C   0  0  0  0  0  0  0  0  0  0  0  0
   54.5370   -7.5867   -3.3295 C   0  0  0  0  0  0  0  0  0  0  0  0
   54.3734   -7.3790   -4.8137 C   0  0  0  0  0  0  0  0  0  0  0  0
   54.3192   -5.9544   -5.0518 N   0  0  0  0  0  0  0  0  0  0  0  0
   55.3397   -5.1801   -4.3818 C   0  0  0  0  0  0  0  0  0  0  0  0
   55.1301   -5.2962   -2.9001 C   0  0  0  0  0  0  0  0  0  0  0  0
   56.4343   -5.2583   -2.1312 C   0  0  0  0  0  0  0  0  0  0  0  0
   54.3110   -6.4123   -2.5506 N   0  0  0  0  0  0  0  0  0  0  0  0
   54.3525   -6.6530   -1.5576 H   0  0  0  0  0  0  0  0  0  0  0  0
   55.9457   -4.3869   -9.9494 C   0  0  0  0  0  0  0  0  0  0  0  0
   55.7112   -4.1239  -11.3159 C   0  0  0  0  0  0  0  0  0  0  0  0
   56.6563   -4.1165  -12.2792 C   0  0  0  0  0  0  0  0  0  0  0  0
   57.9478   -4.3873  -11.8951 C   0  0  0  0  0  0  0  0  0  0  0  0
   58.2522   -4.6517  -10.5848 C   0  0  0  0  0  0  0  0  0  0  0  0
   57.2264   -4.6493   -9.5967 C   0  0  0  0  0  0  0  0  0  0  0  0
   57.7029   -4.9032   -8.2353 C   0  0  0  0  0  0  0  0  0  0  0  0
   57.5213   -3.8388   -7.3918 F   0  0  0  0  0  0  0  0  0  0  0  0
   57.2383   -6.1165   -7.7317 F   0  0  0  0  0  0  0  0  0  0  0  0
   59.0972   -5.1018   -8.2639 F   0  0  0  0  0  0  0  0  0  0  0  0
   56.3536   -3.8302  -13.7032 C   0  0  0  0  0  0  0  0  0  0  0  0
   57.4290   -3.3214  -14.3881 O   0  0  0  0  0  0  0  0  0  0  0  0
   57.7231   -3.9457  -15.1041 H   0  0  0  0  0  0  0  0  0  0  0  0
 11 12  1  0  0  0
 12 13  1  0  0  0
 13 14  1  0  0  0
 14 15  1  0  0  0
 15 16  1  0  0  0
 16 17  1  0  0  0
 16 18  1  0  0  0
 14  1  1  0  0  0
  1  2  2  0  0  0
  2  3  1  0  0  0
  3  4  2  0  0  0
  4  5  1  0  0  0
  5  6  1  0  0  0
  6  7  1  0  0  0
  7  8  2  0  0  0
  8  9  1  0  0  0
  7 20  1  0  0  0
 20 21  2  0  0  0
 21 22  1  0  0  0
 22 30  1  0  0  0
 30 31  1  0  0  0
 22 23  2  0  0  0
 23 24  1  0  0  0
 24 25  2  0  0  0
 25 26  1  0  0  0
 26 27  1  0  0  0
 26 28  1  0  0  0
 26 29  1  0  0  0
 18 12  1  0  0  0
  9  1  1  0  0  0
 25 20  1  0  0  0
  9  5  2  0  0  0
 18 19  1  0  0  0
  6 10  1  0  0  0
 31 32  1  0  0  0
M  END
> <minimizedAffinity>
-9.61764

> <CNNscore>
0.3632529676

> <CNNaffinity>
6.7474608421

> <CNN_VS>
2.4510352612

> <CNNaffinity_variance>
0.1831862777

$$$$
[H]OC([H])([H])c1c([H])c([H])c(C(F)(F)F)c(-c2nc3c(N4C([H])([H])[C@]([H])(C([H])([H])[H])N([H])[C@]([H])(C([H])([H])[H])C4([H])[H])c([H])c([H])c([H])c3n2[H])c1[H]


 32 35  0  0  0  0  0  0  0  0999 V2000
   58.6263   -5.4857   -9.9075 C   0  0  0  0  0  0  0  0  0  0  0  0
   58.7107   -5.0362  -11.2280 C   0  0  0  0  0  0  0  0  0  0  0  0
   57.7142   -4.2522  -11.7655 C   0  0  0  0  0  0  0  0  0  0  0  0
   56.6395   -3.9320  -10.9545 C   0  0  0  0  0  0  0  0  0  0  0  0
   56.5572   -4.3753   -9.6539 C   0  0  0  0  0  0  0  0  0  0  0  0
   55.6399   -4.2216   -8.6438 N   0  0  0  0  0  0  0  0  0  0  0  0
   55.9833   -4.8420   -7.5366 C   0  0  0  0  0  0  0  0  0  0  0  0
   57.2119   -5.4346   -7.8613 N   0  0  0  0  0  0  0  0  0  0  0  0
   57.5407   -5.1537   -9.1110 C   0  0  0  0  0  0  0  0  0  0  0  0
   54.8117   -3.6310   -8.8384 H   0  0  0  0  0  0  0  0  0  0  0  0
   62.4033   -7.2654   -7.5713 C   0  0  0  0  0  0  0  0  0  0  0  0
   61.8738   -6.2143   -8.5230 C   0  0  0  0  0  0  0  0  0  0  0  0
   60.4377   -5.8975   -8.1917 C   0  0  0  0  0  0  0  0  0  0  0  0
   59.6313   -6.2917   -9.3246 N   0  0  0  0  0  0  0  0  0  0  0  0
   59.9159   -7.6065   -9.8538 C   0  0  0  0  0  0  0  0  0  0  0  0
   61.3135   -7.6078  -10.4009 C   0  0  0  0  0  0  0  0  0  0  0  0
   61.9919   -8.9522  -10.2397 C   0  0  0  0  0  0  0  0  0  0  0  0
   62.0976   -6.5257   -9.8977 N   0  0  0  0  0  0  0  0  0  0  0  0
   63.1009   -6.6402  -10.0587 H   0  0  0  0  0  0  0  0  0  0  0  0
   55.3857   -5.0706   -6.2306 C   0  0  0  0  0  0  0  0  0  0  0  0
   56.2175   -4.9303   -5.0991 C   0  0  0  0  0  0  0  0  0  0  0  0
   55.8515   -5.1966   -3.8278 C   0  0  0  0  0  0  0  0  0  0  0  0
   54.5667   -5.6395   -3.6229 C   0  0  0  0  0  0  0  0  0  0  0  0
   53.7009   -5.7997   -4.6738 C   0  0  0  0  0  0  0  0  0  0  0  0
   54.1245   -5.5070   -6.0017 C   0  0  0  0  0  0  0  0  0  0  0  0
   53.0831   -5.6807   -7.0168 C   0  0  0  0  0  0  0  0  0  0  0  0
   52.7323   -4.5103   -7.6369 F   0  0  0  0  0  0  0  0  0  0  0  0
   53.3687   -6.7270   -7.8916 F   0  0  0  0  0  0  0  0  0  0  0  0
   51.8999   -6.1225   -6.3929 F   0  0  0  0  0  0  0  0  0  0  0  0
   56.7678   -5.0283   -2.6731 C   0  0  0  0  0  0  0  0  0  0  0  0
   57.0002   -3.7121   -2.3604 O   0  0  0  0  0  0  0  0  0  0  0  0
   56.6438   -3.4919   -1.4584 H   0  0  0  0  0  0  0  0  0  0  0  0
 11 12  1  0  0  0
 12 13  1  0  0  0
 13 14  1  0  0  0
 14 15  1  0  0  0
 15 16  1  0  0  0
 16 17  1  0  0  0
 16 18  1  0  0  0
 14  1  1  0  0  0
  1  2  2  0  0  0
  2  3  1  0  0  0
  3  4  2  0  0  0
  4  5  1  0  0  0
  5  6  1  0  0  0
  6  7  1  0  0  0
  7  8  2  0  0  0
  8  9  1  0  0  0
  7 20  1  0  0  0
 20 21  2  0  0  0
 21 22  1  0  0  0
 22 30  1  0  0  0
 30 31  1  0  0  0
 22 23  2  0  0  0
 23 24  1  0  0  0
 24 25  2  0  0  0
 25 26  1  0  0  0
 26 27  1  0  0  0
 26 28  1  0  0  0
 26 29  1  0  0  0
 18 12  1  0  0  0
  9  1  1  0  0  0
 25 20  1  0  0  0
  9  5  2  0  0  0
 18 19  1  0  0  0
  6 10  1  0  0  0
 31 32  1  0  0  0
M  END
> <minimizedAffinity>
-7.30138

> <CNNscore>
0.3526222110

> <CNNaffinity>
6.3348574638

> <CNN_VS>
2.2338113785

> <CNNaffinity_variance>
0.0555141456

$$$$
[H]OC([H])([H])c1c([H])c([H])c(C(F)(F)F)c(-c2nc3c(N4C([H])([H])[C@]([H])(C([H])([H])[H])N([H])[C@]([H])(C([H])([H])[H])C4([H])[H])c([H])c([H])c([H])c3n2[H])c1[H]


 32 35  0  0  0  0  0  0  0  0999 V2000
   59.4921   -5.5569  -10.5125 C   0  0  0  0  0  0  0  0  0  0  0  0
   59.5812   -4.9654  -11.7755 C   0  0  0  0  0  0  0  0  0  0  0  0
   58.5926   -4.1169  -12.2221 C   0  0  0  0  0  0  0  0  0  0  0  0
   57.5212   -3.8773  -11.3797 C   0  0  0  0  0  0  0  0  0  0  0  0
   57.4344   -4.4605  -10.1357 C   0  0  0  0  0  0  0  0  0  0  0  0
   56.5187   -4.4099   -9.1139 N   0  0  0  0  0  0  0  0  0  0  0  0
   56.8557   -5.1521   -8.0822 C   0  0  0  0  0  0  0  0  0  0  0  0
   58.0783   -5.7176   -8.4717 N   0  0  0  0  0  0  0  0  0  0  0  0
   58.4100   -5.3039   -9.6831 C   0  0  0  0  0  0  0  0  0  0  0  0
   55.6965   -3.7931   -9.2412 H   0  0  0  0  0  0  0  0  0  0  0  0
   62.0207   -9.1616   -8.6406 C   0  0  0  0  0  0  0  0  0  0  0  0
   60.8226   -8.2454   -8.5135 C   0  0  0  0  0  0  0  0  0  0  0  0
   60.3217   -7.8612   -9.8824 C   0  0  0  0  0  0  0  0  0  0  0  0
   60.4889   -6.4324  -10.0232 N   0  0  0  0  0  0  0  0  0  0  0  0
   61.7806   -5.9223   -9.6218 C   0  0  0  0  0  0  0  0  0  0  0  0
   61.9462   -6.1511   -8.1477 C   0  0  0  0  0  0  0  0  0  0  0  0
   63.3869   -6.4220   -7.7672 C   0  0  0  0  0  0  0  0  0  0  0  0
   61.0436   -7.1359   -7.6434 N   0  0  0  0  0  0  0  0  0  0  0  0
   61.2944   -7.4807   -6.7140 H   0  0  0  0  0  0  0  0  0  0  0  0
   56.2558   -5.5173   -6.8087 C   0  0  0  0  0  0  0  0  0  0  0  0
   57.0652   -6.2059   -5.8801 C   0  0  0  0  0  0  0  0  0  0  0  0
   56.6430   -6.6995   -4.6972 C   0  0  0  0  0  0  0  0  0  0  0  0
   55.3196   -6.5153   -4.3753 C   0  0  0  0  0  0  0  0  0  0  0  0
   54.4726   -5.8552   -5.2276 C   0  0  0  0  0  0  0  0  0  0  0  0
   54.9566   -5.3477   -6.4673 C   0  0  0  0  0  0  0  0  0  0  0  0
   53.9533   -4.6274   -7.2545 C   0  0  0  0  0  0  0  0  0  0  0  0
   52.7342   -4.5482   -6.6339 F   0  0  0  0  0  0  0  0  0  0  0  0
   54.4321   -3.4083   -7.7302 F   0  0  0  0  0  0  0  0  0  0  0  0
   53.7024   -5.3388   -8.4442 F   0  0  0  0  0  0  0  0  0  0  0  0
   57.5396   -7.4144   -3.7558 C   0  0  0  0  0  0  0  0  0  0  0  0
   58.8459   -7.4432   -4.1768 O   0  0  0  0  0  0  0  0  0  0  0  0
   59.4325   -6.9376   -3.5530 H   0  0  0  0  0  0  0  0  0  0  0  0
 11 12  1  0  0  0
 12 13  1  0  0  0
 13 14  1  0  0  0
 14 15  1  0  0  0
 15 16  1  0  0  0
 16 17  1  0  0  0
 16 18  1  0  0  0
 14  1  1  0  0  0
  1  2  2  0  0  0
  2  3  1  0  0  0
  3  4  2  0  0  0
  4  5  1  0  0  0
  5  6  1  0  0  0
  6  7  1  0  0  0
  7  8  2  0  0  0
  8  9  1  0  0  0
  7 20  1  0  0  0
 20 21  2  0  0  0
 21 22  1  0  0  0
 22 30  1  0  0  0
 30 31  1  0  0  0
 22 23  2  0  0  0
 23 24  1  0  0  0
 24 25  2  0  0  0
 25 26  1  0  0  0
 26 27  1  0  0  0
 26 28  1  0  0  0
 26 29  1  0  0  0
 18 12  1  0  0  0
  9  1  1  0  0  0
 25 20  1  0  0  0
  9  5  2  0  0  0
 18 19  1  0  0  0
  6 10  1  0  0  0
 31 32  1  0  0  0
M  END
> <minimizedAffinity>
-5.16921

> <CNNscore>
0.3390685320

> <CNNaffinity>
5.8822569847

> <CNN_VS>
1.9944882393

> <CNNaffinity_variance>
0.1836537421

$$$$
[H]OC([H])([H])c1c([H])c([H])c(C(F)(F)F)c(-c2nc3c(N4C([H])([H])[C@]([H])(C([H])([H])[H])N([H])[C@]([H])(C([H])([H])[H])C4([H])[H])c([H])c([H])c([H])c3n2[H])c1[H]


 32 35  0  0  0  0  0  0  0  0999 V2000
   59.2426   -5.6378  -10.0764 C   0  0  0  0  0  0  0  0  0  0  0  0
   59.1518   -5.0069  -11.3200 C   0  0  0  0  0  0  0  0  0  0  0  0
   58.0627   -4.2225  -11.6290 C   0  0  0  0  0  0  0  0  0  0  0  0
   57.0748   -4.0866  -10.6696 C   0  0  0  0  0  0  0  0  0  0  0  0
   57.1652   -4.7084   -9.4448 C   0  0  0  0  0  0  0  0  0  0  0  0
   56.3644   -4.7543   -8.3303 N   0  0  0  0  0  0  0  0  0  0  0  0
   56.8634   -5.4971   -7.3670 C   0  0  0  0  0  0  0  0  0  0  0  0
   58.0736   -5.9591   -7.9038 N   0  0  0  0  0  0  0  0  0  0  0  0
   58.2416   -5.4888   -9.1283 C   0  0  0  0  0  0  0  0  0  0  0  0
   55.4915   -4.1972   -8.3478 H   0  0  0  0  0  0  0  0  0  0  0  0
   62.2158   -9.1373   -8.7333 C   0  0  0  0  0  0  0  0  0  0  0  0
   60.9337   -8.3807   -8.4605 C   0  0  0  0  0  0  0  0  0  0  0  0
   60.3377   -7.8946   -9.7571 C   0  0  0  0  0  0  0  0  0  0  0  0
   60.3463   -6.4495   -9.7269 N   0  0  0  0  0  0  0  0  0  0  0  0
   61.5923   -5.8512   -9.3036 C   0  0  0  0  0  0  0  0  0  0  0  0
   61.8431   -6.2332   -7.8740 C   0  0  0  0  0  0  0  0  0  0  0  0
   63.3191   -6.3866   -7.5712 C   0  0  0  0  0  0  0  0  0  0  0  0
   61.0720   -7.3644   -7.4680 N   0  0  0  0  0  0  0  0  0  0  0  0
   61.3969   -7.7870   -6.5954 H   0  0  0  0  0  0  0  0  0  0  0  0
   56.4327   -5.9407   -6.0507 C   0  0  0  0  0  0  0  0  0  0  0  0
   57.4293   -6.3721   -5.1494 C   0  0  0  0  0  0  0  0  0  0  0  0
   57.1977   -6.9011   -3.9297 C   0  0  0  0  0  0  0  0  0  0  0  0
   55.8865   -7.0285   -3.5382 C   0  0  0  0  0  0  0  0  0  0  0  0
   54.8641   -6.6306   -4.3604 C   0  0  0  0  0  0  0  0  0  0  0  0
   55.1493   -6.0757   -5.6407 C   0  0  0  0  0  0  0  0  0  0  0  0
   53.9640   -5.6544   -6.3907 C   0  0  0  0  0  0  0  0  0  0  0  0
   53.8211   -6.3069   -7.5870 F   0  0  0  0  0  0  0  0  0  0  0  0
   52.8152   -5.6499   -5.6020 F   0  0  0  0  0  0  0  0  0  0  0  0
   54.0970   -4.2959   -6.7389 F   0  0  0  0  0  0  0  0  0  0  0  0
   58.2859   -7.3362   -3.0199 C   0  0  0  0  0  0  0  0  0  0  0  0
   59.5360   -7.1758   -3.5639 O   0  0  0  0  0  0  0  0  0  0  0  0
   60.0649   -6.5080   -3.0508 H   0  0  0  0  0  0  0  0  0  0  0  0
 11 12  1  0  0  0
 12 13  1  0  0  0
 13 14  1  0  0  0
 14 15  1  0  0  0
 15 16  1  0  0  0
 16 17  1  0  0  0
 16 18  1  0  0  0
 14  1  1  0  0  0
  1  2  2  0  0  0
  2  3  1  0  0  0
  3  4  2  0  0  0
  4  5  1  0  0  0
  5  6  1  0  0  0
  6  7  1  0  0  0
  7  8  2  0  0  0
  8  9  1  0  0  0
  7 20  1  0  0  0
 20 21  2  0  0  0
 21 22  1  0  0  0
 22 30  1  0  0  0
 30 31  1  0  0  0
 22 23  2  0  0  0
 23 24  1  0  0  0
 24 25  2  0  0  0
 25 26  1  0  0  0
 26 27  1  0  0  0
 26 28  1  0  0  0
 26 29  1  0  0  0
 18 12  1  0  0  0
  9  1  1  0  0  0
 25 20  1  0  0  0
  9  5  2  0  0  0
 18 19  1  0  0  0
  6 10  1  0  0  0
 31 32  1  0  0  0
M  END
> <minimizedAffinity>
-4.94637

> <CNNscore>
0.3316968381

> <CNNaffinity>
5.9073386192

> <CNN_VS>
1.9594455957

> <CNNaffinity_variance>
0.1743121594

$$$$
[H]OC([H])([H])c1c([H])c([H])c(C(F)(F)F)c(-c2nc3c(N4C([H])([H])[C@]([H])(C([H])([H])[H])N([H])[C@]([H])(C([H])([H])[H])C4([H])[H])c([H])c([H])c([H])c3n2[H])c1[H]


 32 35  0  0  0  0  0  0  0  0999 V2000
   58.8302   -5.1983  -10.5478 C   0  0  0  0  0  0  0  0  0  0  0  0
   59.3533   -4.7276  -11.7552 C   0  0  0  0  0  0  0  0  0  0  0  0
   58.6317   -3.8529  -12.5368 C   0  0  0  0  0  0  0  0  0  0  0  0
   57.3834   -3.4643  -12.0832 C   0  0  0  0  0  0  0  0  0  0  0  0
   56.8690   -3.9285  -10.8937 C   0  0  0  0  0  0  0  0  0  0  0  0
   55.6961   -3.7231  -10.2101 N   0  0  0  0  0  0  0  0  0  0  0  0
   55.6328   -4.3942   -9.0812 C   0  0  0  0  0  0  0  0  0  0  0  0
   56.8563   -5.0778   -9.0382 N   0  0  0  0  0  0  0  0  0  0  0  0
   57.5770   -4.7967  -10.1107 C   0  0  0  0  0  0  0  0  0  0  0  0
   55.0135   -3.0625  -10.6229 H   0  0  0  0  0  0  0  0  0  0  0  0
   61.6713   -7.3305   -7.3427 C   0  0  0  0  0  0  0  0  0  0  0  0
   61.5351   -6.2820   -8.4256 C   0  0  0  0  0  0  0  0  0  0  0  0
   60.1269   -5.7444   -8.4466 C   0  0  0  0  0  0  0  0  0  0  0  0
   59.5441   -6.0966   -9.7216 N   0  0  0  0  0  0  0  0  0  0  0  0
   59.7359   -7.4711  -10.1261 C   0  0  0  0  0  0  0  0  0  0  0  0
   61.2036   -7.7062  -10.3346 C   0  0  0  0  0  0  0  0  0  0  0  0
   61.6154   -9.1188   -9.9758 C   0  0  0  0  0  0  0  0  0  0  0  0
   62.0108   -6.7139   -9.7000 N   0  0  0  0  0  0  0  0  0  0  0  0
   62.9952   -6.9791   -9.6205 H   0  0  0  0  0  0  0  0  0  0  0  0
   54.6437   -4.6025   -8.0356 C   0  0  0  0  0  0  0  0  0  0  0  0
   54.9201   -5.5869   -7.0629 C   0  0  0  0  0  0  0  0  0  0  0  0
   54.0740   -5.9721   -6.0847 C   0  0  0  0  0  0  0  0  0  0  0  0
   52.8471   -5.3547   -6.0354 C   0  0  0  0  0  0  0  0  0  0  0  0
   52.5077   -4.3884   -6.9468 C   0  0  0  0  0  0  0  0  0  0  0  0
   53.4290   -4.0085   -7.9644 C   0  0  0  0  0  0  0  0  0  0  0  0
   52.9502   -2.9350   -8.8381 C   0  0  0  0  0  0  0  0  0  0  0  0
   53.7345   -1.8123   -8.7944 F   0  0  0  0  0  0  0  0  0  0  0  0
   52.6728   -3.3879  -10.1264 F   0  0  0  0  0  0  0  0  0  0  0  0
   51.6859   -2.5047   -8.3901 F   0  0  0  0  0  0  0  0  0  0  0  0
   54.4182   -7.0125   -5.0846 C   0  0  0  0  0  0  0  0  0  0  0  0
   55.2341   -7.9936   -5.5905 O   0  0  0  0  0  0  0  0  0  0  0  0
   56.1199   -7.9886   -5.1384 H   0  0  0  0  0  0  0  0  0  0  0  0
 11 12  1  0  0  0
 12 13  1  0  0  0
 13 14  1  0  0  0
 14 15  1  0  0  0
 15 16  1  0  0  0
 16 17  1  0  0  0
 16 18  1  0  0  0
 14  1  1  0  0  0
  1  2  2  0  0  0
  2  3  1  0  0  0
  3  4  2  0  0  0
  4  5  1  0  0  0
  5  6  1  0  0  0
  6  7  1  0  0  0
  7  8  2  0  0  0
  8  9  1  0  0  0
  7 20  1  0  0  0
 20 21  2  0  0  0
 21 22  1  0  0  0
 22 30  1  0  0  0
 30 31  1  0  0  0
 22 23  2  0  0  0
 23 24  1  0  0  0
 24 25  2  0  0  0
 25 26  1  0  0  0
 26 27  1  0  0  0
 26 28  1  0  0  0
 26 29  1  0  0  0
 18 12  1  0  0  0
  9  1  1  0  0  0
 25 20  1  0  0  0
  9  5  2  0  0  0
 18 19  1  0  0  0
  6 10  1  0  0  0
 31 32  1  0  0  0
M  END
> <minimizedAffinity>
-8.01615

> <CNNscore>
0.2809737027

> <CNNaffinity>
6.0843849182

> <CNN_VS>
1.7095521688

> <CNNaffinity_variance>
0.1056104153

$$$$
[H]OC1([H])C([H])([H])C([H])([H])N(c2c([H])c3c([H])c(Sc4c([H])c([H])c([H])c([H])c4[H])c([H])nc3n2[H])C([H])([H])C1([H])[H]


 25 28  0  0  0  0  0  0  0  0999 V2000
   54.8806   -3.8584   -9.5528 C   0  0  0  0  0  0  0  0  0  0  0  0
   54.4109   -4.6944   -8.5634 C   0  0  0  0  0  0  0  0  0  0  0  0
   53.2314   -4.2133   -8.0398 C   0  0  0  0  0  0  0  0  0  0  0  0
   52.3363   -4.6211   -7.0565 C   0  0  0  0  0  0  0  0  0  0  0  0
   51.2046   -3.8910   -6.7603 C   0  0  0  0  0  0  0  0  0  0  0  0
   51.0086   -2.7307   -7.4949 C   0  0  0  0  0  0  0  0  0  0  0  0
   51.8716   -2.3312   -8.4474 N   0  0  0  0  0  0  0  0  0  0  0  0
   52.9820   -3.0498   -8.7364 C   0  0  0  0  0  0  0  0  0  0  0  0
   53.9738   -2.8525   -9.6338 N   0  0  0  0  0  0  0  0  0  0  0  0
   54.0222   -2.0412  -10.2863 H   0  0  0  0  0  0  0  0  0  0  0  0
   58.9045   -3.6011  -12.7996 O   0  0  0  0  0  0  0  0  0  0  0  0
   58.1030   -4.6316  -12.2563 C   0  0  0  0  0  0  0  0  0  0  0  0
   56.6695   -4.3170  -12.6152 C   0  0  0  0  0  0  0  0  0  0  0  0
   56.1779   -3.2727  -11.6420 C   0  0  0  0  0  0  0  0  0  0  0  0
   56.0470   -3.9698  -10.3540 N   0  0  0  0  0  0  0  0  0  0  0  0
   57.1393   -4.7777   -9.9241 C   0  0  0  0  0  0  0  0  0  0  0  0
   58.3477   -4.6908  -10.7867 C   0  0  0  0  0  0  0  0  0  0  0  0
   58.4580   -3.2317  -13.6047 H   0  0  0  0  0  0  0  0  0  0  0  0
   50.0351   -4.3933   -5.4882 S   0  0  0  0  0  0  0  0  0  0  0  0
   50.8975   -5.3110   -4.2275 C   0  0  0  0  0  0  0  0  0  0  0  0
   52.1571   -5.8458   -4.4003 C   0  0  0  0  0  0  0  0  0  0  0  0
   52.7761   -6.5529   -3.3739 C   0  0  0  0  0  0  0  0  0  0  0  0
   52.1413   -6.7320   -2.1646 C   0  0  0  0  0  0  0  0  0  0  0  0
   50.8838   -6.2035   -1.9785 C   0  0  0  0  0  0  0  0  0  0  0  0
   50.2665   -5.4936   -3.0142 C   0  0  0  0  0  0  0  0  0  0  0  0
 11 12  1  0  0  0
 12 13  1  0  0  0
 13 14  1  0  0  0
 14 15  1  0  0  0
 15 16  1  0  0  0
 16 17  1  0  0  0
 15  1  1  0  0  0
  1  2  2  0  0  0
  2  3  1  0  0  0
  3  4  2  0  0  0
  4  5  1  0  0  0
  5 19  1  0  0  0
 19 20  1  0  0  0
 20 21  2  0  0  0
 21 22  1  0  0  0
 22 23  2  0  0  0
 23 24  1  0  0  0
 24 25  2  0  0  0
  5  6  2  0  0  0
  6  7  1  0  0  0
  7  8  2  0  0  0
  8  9  1  0  0  0
 17 12  1  0  0  0
  9  1  1  0  0  0
  8  3  1  0  0  0
 25 20  1  0  0  0
 11 18  1  0  0  0
  9 10  1  0  0  0
M  END
> <minimizedAffinity>
-8.79720

> <CNNscore>
0.6754245162

> <CNNaffinity>
6.6411733627

> <CNN_VS>
4.4856114388

> <CNNaffinity_variance>
0.0880120844

$$$$
[H]OC1([H])C([H])([H])C([H])([H])N(c2c([H])c3c([H])c(Sc4c([H])c([H])c([H])c([H])c4[H])c([H])nc3n2[H])C([H])([H])C1([H])[H]


 25 28  0  0  0  0  0  0  0  0999 V2000
   57.5985   -3.9801  -12.0449 C   0  0  0  0  0  0  0  0  0  0  0  0
   57.9066   -4.6672  -10.8910 C   0  0  0  0  0  0  0  0  0  0  0  0
   56.8623   -4.6061   -9.9951 C   0  0  0  0  0  0  0  0  0  0  0  0
   56.6140   -5.0951   -8.7170 C   0  0  0  0  0  0  0  0  0  0  0  0
   55.4222   -4.8510   -8.0678 C   0  0  0  0  0  0  0  0  0  0  0  0
   54.4872   -4.0931   -8.7574 C   0  0  0  0  0  0  0  0  0  0  0  0
   54.7224   -3.6171   -9.9943 N   0  0  0  0  0  0  0  0  0  0  0  0
   55.8933   -3.8581  -10.6297 C   0  0  0  0  0  0  0  0  0  0  0  0
   56.3474   -3.4927  -11.8497 N   0  0  0  0  0  0  0  0  0  0  0  0
   55.8049   -2.9197  -12.5306 H   0  0  0  0  0  0  0  0  0  0  0  0
   60.9515   -3.7297  -15.9811 O   0  0  0  0  0  0  0  0  0  0  0  0
   60.0216   -2.8486  -15.3823 C   0  0  0  0  0  0  0  0  0  0  0  0
   60.3834   -2.7468  -13.9189 C   0  0  0  0  0  0  0  0  0  0  0  0
   59.8315   -3.9715  -13.2298 C   0  0  0  0  0  0  0  0  0  0  0  0
   58.3724   -3.7898  -13.2194 N   0  0  0  0  0  0  0  0  0  0  0  0
   57.7438   -3.4074  -14.4398 C   0  0  0  0  0  0  0  0  0  0  0  0
   58.6498   -3.3826  -15.6189 C   0  0  0  0  0  0  0  0  0  0  0  0
   61.8073   -3.6886  -15.4812 H   0  0  0  0  0  0  0  0  0  0  0  0
   55.0794   -5.4664   -6.4118 S   0  0  0  0  0  0  0  0  0  0  0  0
   53.3297   -5.7602   -6.2454 C   0  0  0  0  0  0  0  0  0  0  0  0
   52.5322   -6.2185   -7.2733 C   0  0  0  0  0  0  0  0  0  0  0  0
   51.1703   -6.4277   -7.0771 C   0  0  0  0  0  0  0  0  0  0  0  0
   50.5930   -6.1807   -5.8511 C   0  0  0  0  0  0  0  0  0  0  0  0
   51.3774   -5.7231   -4.8164 C   0  0  0  0  0  0  0  0  0  0  0  0
   52.7461   -5.5145   -5.0197 C   0  0  0  0  0  0  0  0  0  0  0  0
 11 12  1  0  0  0
 12 13  1  0  0  0
 13 14  1  0  0  0
 14 15  1  0  0  0
 15 16  1  0  0  0
 16 17  1  0  0  0
 15  1  1  0  0  0
  1  2  2  0  0  0
  2  3  1  0  0  0
  3  4  2  0  0  0
  4  5  1  0  0  0
  5 19  1  0  0  0
 19 20  1  0  0  0
 20 21  2  0  0  0
 21 22  1  0  0  0
 22 23  2  0  0  0
 23 24  1  0  0  0
 24 25  2  0  0  0
  5  6  2  0  0  0
  6  7  1  0  0  0
  7  8  2  0  0  0
  8  9  1  0  0  0
 17 12  1  0  0  0
  9  1  1  0  0  0
  8  3  1  0  0  0
 25 20  1  0  0  0
 11 18  1  0  0  0
  9 10  1  0  0  0
M  END
> <minimizedAffinity>
-7.47179

> <CNNscore>
0.5469685197

> <CNNaffinity>
6.0025620461

> <CNN_VS>
3.2832124233

> <CNNaffinity_variance>
0.1780848205

$$$$
[H]OC1([H])C([H])([H])C([H])([H])N(c2c([H])c3c([H])c(Sc4c([H])c([H])c([H])c([H])c4[H])c([H])nc3n2[H])C([H])([H])C1([H])[H]


 25 28  0  0  0  0  0  0  0  0999 V2000
   53.6842   -4.0732   -8.2066 C   0  0  0  0  0  0  0  0  0  0  0  0
   54.0475   -3.5748   -9.4388 C   0  0  0  0  0  0  0  0  0  0  0  0
   55.3326   -3.9541   -9.7570 C   0  0  0  0  0  0  0  0  0  0  0  0
   56.1953   -3.7545  -10.8295 C   0  0  0  0  0  0  0  0  0  0  0  0
   57.4660   -4.2897  -10.8453 C   0  0  0  0  0  0  0  0  0  0  0  0
   57.8356   -5.0361   -9.7359 C   0  0  0  0  0  0  0  0  0  0  0  0
   57.0048   -5.2323   -8.6952 N   0  0  0  0  0  0  0  0  0  0  0  0
   55.7576   -4.7056   -8.6820 C   0  0  0  0  0  0  0  0  0  0  0  0
   54.7642   -4.7670   -7.7670 N   0  0  0  0  0  0  0  0  0  0  0  0
   54.8319   -5.2762   -6.8602 H   0  0  0  0  0  0  0  0  0  0  0  0
   49.5819   -3.9491   -5.0514 O   0  0  0  0  0  0  0  0  0  0  0  0
   49.7870   -4.0687   -6.4454 C   0  0  0  0  0  0  0  0  0  0  0  0
   50.6863   -5.2633   -6.6623 C   0  0  0  0  0  0  0  0  0  0  0  0
   52.1022   -4.8208   -6.3820 C   0  0  0  0  0  0  0  0  0  0  0  0
   52.4624   -3.9334   -7.4977 N   0  0  0  0  0  0  0  0  0  0  0  0
   51.5354   -2.9130   -7.8584 C   0  0  0  0  0  0  0  0  0  0  0  0
   50.3678   -2.7898   -6.9455 C   0  0  0  0  0  0  0  0  0  0  0  0
   49.6536   -4.8460   -4.6338 H   0  0  0  0  0  0  0  0  0  0  0  0
   58.6035   -4.0402  -12.2173 S   0  0  0  0  0  0  0  0  0  0  0  0
   57.6823   -3.9906  -13.7418 C   0  0  0  0  0  0  0  0  0  0  0  0
   58.0398   -3.2139  -14.8241 C   0  0  0  0  0  0  0  0  0  0  0  0
   57.2759   -3.2208  -15.9874 C   0  0  0  0  0  0  0  0  0  0  0  0
   56.1471   -4.0049  -16.0795 C   0  0  0  0  0  0  0  0  0  0  0  0
   55.7787   -4.7852  -15.0068 C   0  0  0  0  0  0  0  0  0  0  0  0
   56.5507   -4.7738  -13.8398 C   0  0  0  0  0  0  0  0  0  0  0  0
 11 12  1  0  0  0
 12 13  1  0  0  0
 13 14  1  0  0  0
 14 15  1  0  0  0
 15 16  1  0  0  0
 16 17  1  0  0  0
 15  1  1  0  0  0
  1  2  2  0  0  0
  2  3  1  0  0  0
  3  4  2  0  0  0
  4  5  1  0  0  0
  5 19  1  0  0  0
 19 20  1  0  0  0
 20 21  2  0  0  0
 21 22  1  0  0  0
 22 23  2  0  0  0
 23 24  1  0  0  0
 24 25  2  0  0  0
  5  6  2  0  0  0
  6  7  1  0  0  0
  7  8  2  0  0  0
  8  9  1  0  0  0
 17 12  1  0  0  0
  9  1  1  0  0  0
  8  3  1  0  0  0
 25 20  1  0  0  0
 11 18  1  0  0  0
  9 10  1  0  0  0
M  END
> <minimizedAffinity>
-8.69771

> <CNNscore>
0.5072437525

> <CNNaffinity>
6.2104134560

> <CNN_VS>
3.1501934528

> <CNNaffinity_variance>
0.0983093008

$$$$
[H]OC1([H])C([H])([H])C([H])([H])N(c2c([H])c3c([H])c(Sc4c([H])c([H])c([H])c([H])c4[H])c([H])nc3n2[H])C([H])([H])C1([H])[H]


 25 28  0  0  0  0  0  0  0  0999 V2000
   55.8434   -4.2238   -9.7202 C   0  0  0  0  0  0  0  0  0  0  0  0
   55.7514   -4.9533   -8.5549 C   0  0  0  0  0  0  0  0  0  0  0  0
   54.5046   -4.8086   -7.9879 C   0  0  0  0  0  0  0  0  0  0  0  0
   53.8627   -5.2911   -6.8523 C   0  0  0  0  0  0  0  0  0  0  0  0
   52.5608   -4.9469   -6.5558 C   0  0  0  0  0  0  0  0  0  0  0  0
   51.9282   -4.0954   -7.4499 C   0  0  0  0  0  0  0  0  0  0  0  0
   52.5447   -3.6254   -8.5502 N   0  0  0  0  0  0  0  0  0  0  0  0
   53.8231   -3.9647   -8.8391 C   0  0  0  0  0  0  0  0  0  0  0  0
   54.6345   -3.6254   -9.8660 N   0  0  0  0  0  0  0  0  0  0  0  0
   54.3586   -2.9946  -10.6485 H   0  0  0  0  0  0  0  0  0  0  0  0
   59.5821   -2.9996  -13.0852 O   0  0  0  0  0  0  0  0  0  0  0  0
   58.7942   -4.1422  -12.8149 C   0  0  0  0  0  0  0  0  0  0  0  0
   57.3472   -3.7218  -12.9258 C   0  0  0  0  0  0  0  0  0  0  0  0
   56.9774   -3.0277  -11.6370 C   0  0  0  0  0  0  0  0  0  0  0  0
   56.9325   -4.0892  -10.6205 N   0  0  0  0  0  0  0  0  0  0  0  0
   58.0285   -4.9982  -10.5632 C   0  0  0  0  0  0  0  0  0  0  0  0
   59.1611   -4.6563  -11.4643 C   0  0  0  0  0  0  0  0  0  0  0  0
   59.0817   -2.3955  -13.6925 H   0  0  0  0  0  0  0  0  0  0  0  0
   51.7105   -5.5518   -5.0898 S   0  0  0  0  0  0  0  0  0  0  0  0
   50.2433   -4.5775   -4.8183 C   0  0  0  0  0  0  0  0  0  0  0  0
   49.3281   -4.8388   -3.8200 C   0  0  0  0  0  0  0  0  0  0  0  0
   48.2011   -4.0378   -3.6614 C   0  0  0  0  0  0  0  0  0  0  0  0
   47.9786   -2.9677   -4.4998 C   0  0  0  0  0  0  0  0  0  0  0  0
   48.8841   -2.6955   -5.5004 C   0  0  0  0  0  0  0  0  0  0  0  0
   50.0153   -3.5045   -5.6550 C   0  0  0  0  0  0  0  0  0  0  0  0
 11 12  1  0  0  0
 12 13  1  0  0  0
 13 14  1  0  0  0
 14 15  1  0  0  0
 15 16  1  0  0  0
 16 17  1  0  0  0
 15  1  1  0  0  0
  1  2  2  0  0  0
  2  3  1  0  0  0
  3  4  2  0  0  0
  4  5  1  0  0  0
  5 19  1  0  0  0
 19 20  1  0  0  0
 20 21  2  0  0  0
 21 22  1  0  0  0
 22 23  2  0  0  0
 23 24  1  0  0  0
 24 25  2  0  0  0
  5  6  2  0  0  0
  6  7  1  0  0  0
  7  8  2  0  0  0
  8  9  1  0  0  0
 17 12  1  0  0  0
  9  1  1  0  0  0
  8  3  1  0  0  0
 25 20  1  0  0  0
 11 18  1  0  0  0
  9 10  1  0  0  0
M  END
> <minimizedAffinity>
-8.64338

> <CNNscore>
0.4061394632

> <CNNaffinity>
6.0659360886

> <CNN_VS>
2.4636161327

> <CNNaffinity_variance>
0.0879561901

$$$$
[H]OC1([H])C([H])([H])C([H])([H])N(c2c([H])c3c([H])c(Sc4c([H])c([H])c([H])c([H])c4[H])c([H])nc3n2[H])C([H])([H])C1([H])[H]


 25 28  0  0  0  0  0  0  0  0999 V2000
   54.6920   -4.2405   -8.9045 C   0  0  0  0  0  0  0  0  0  0  0  0
   54.4570   -5.0406   -7.8075 C   0  0  0  0  0  0  0  0  0  0  0  0
   53.2389   -4.7408   -7.2391 C   0  0  0  0  0  0  0  0  0  0  0  0
   52.5026   -5.2051   -6.1543 C   0  0  0  0  0  0  0  0  0  0  0  0
   51.2684   -4.6774   -5.8385 C   0  0  0  0  0  0  0  0  0  0  0  0
   50.8028   -3.6610   -6.6598 C   0  0  0  0  0  0  0  0  0  0  0  0
   51.5112   -3.2078   -7.7107 N   0  0  0  0  0  0  0  0  0  0  0  0
   52.7229   -3.7275   -8.0188 C   0  0  0  0  0  0  0  0  0  0  0  0
   53.6006   -3.4410   -9.0065 N   0  0  0  0  0  0  0  0  0  0  0  0
   53.4483   -2.7097   -9.7333 H   0  0  0  0  0  0  0  0  0  0  0  0
   58.4765   -3.4583  -12.3490 O   0  0  0  0  0  0  0  0  0  0  0  0
   57.7648   -4.5780  -11.8598 C   0  0  0  0  0  0  0  0  0  0  0  0
   56.2969   -4.3121  -12.0994 C   0  0  0  0  0  0  0  0  0  0  0  0
   55.8186   -3.3918  -11.0024 C   0  0  0  0  0  0  0  0  0  0  0  0
   55.8074   -4.2116   -9.7818 N   0  0  0  0  0  0  0  0  0  0  0  0
   56.9646   -4.9936   -9.4984 C   0  0  0  0  0  0  0  0  0  0  0  0
   58.1080   -4.7596  -10.4203 C   0  0  0  0  0  0  0  0  0  0  0  0
   57.9602   -3.0413  -13.0864 H   0  0  0  0  0  0  0  0  0  0  0  0
   50.2995   -5.2555   -4.4365 S   0  0  0  0  0  0  0  0  0  0  0  0
   51.4014   -5.7894   -3.1419 C   0  0  0  0  0  0  0  0  0  0  0  0
   51.7533   -7.1069   -2.9348 C   0  0  0  0  0  0  0  0  0  0  0  0
   52.6201   -7.4575   -1.9041 C   0  0  0  0  0  0  0  0  0  0  0  0
   53.1434   -6.4939   -1.0704 C   0  0  0  0  0  0  0  0  0  0  0  0
   52.8006   -5.1750   -1.2658 C   0  0  0  0  0  0  0  0  0  0  0  0
   51.9285   -4.8285   -2.3038 C   0  0  0  0  0  0  0  0  0  0  0  0
 11 12  1  0  0  0
 12 13  1  0  0  0
 13 14  1  0  0  0
 14 15  1  0  0  0
 15 16  1  0  0  0
 16 17  1  0  0  0
 15  1  1  0  0  0
  1  2  2  0  0  0
  2  3  1  0  0  0
  3  4  2  0  0  0
  4  5  1  0  0  0
  5 19  1  0  0  0
 19 20  1  0  0  0
 20 21  2  0  0  0
 21 22  1  0  0  0
 22 23  2  0  0  0
 23 24  1  0  0  0
 24 25  2  0  0  0
  5  6  2  0  0  0
  6  7  1  0  0  0
  7  8  2  0  0  0
  8  9  1  0  0  0
 17 12  1  0  0  0
  9  1  1  0  0  0
  8  3  1  0  0  0
 25 20  1  0  0  0
 11 18  1  0  0  0
  9 10  1  0  0  0
M  END
> <minimizedAffinity>
-7.90845

> <CNNscore>
0.3950798810

> <CNNaffinity>
6.2727155685

> <CNN_VS>
2.4782238007

> <CNNaffinity_variance>
0.2818242013

$$$$
[H]OC1([H])C([H])([H])C([H])([H])N(c2c([H])c3c([H])c(Sc4c([H])c([H])c([H])c([H])c4[H])c([H])nc3n2[H])C([H])([H])C1([H])[H]


 25 28  0  0  0  0  0  0  0  0999 V2000
   54.9823   -5.1787   -6.5503 C   0  0  0  0  0  0  0  0  0  0  0  0
   56.2557   -5.3145   -7.0588 C   0  0  0  0  0  0  0  0  0  0  0  0
   56.3109   -4.8627   -8.3586 C   0  0  0  0  0  0  0  0  0  0  0  0
   57.2934   -4.7565   -9.3373 C   0  0  0  0  0  0  0  0  0  0  0  0
   57.0184   -4.2392  -10.5856 C   0  0  0  0  0  0  0  0  0  0  0  0
   55.7117   -3.8317  -10.8109 C   0  0  0  0  0  0  0  0  0  0  0  0
   54.7569   -3.9324   -9.8676 N   0  0  0  0  0  0  0  0  0  0  0  0
   55.0294   -4.4408   -8.6427 C   0  0  0  0  0  0  0  0  0  0  0  0
   54.2501   -4.6358   -7.5552 N   0  0  0  0  0  0  0  0  0  0  0  0
   53.2360   -4.3994   -7.5096 H   0  0  0  0  0  0  0  0  0  0  0  0
   53.7157   -5.9280   -1.5870 O   0  0  0  0  0  0  0  0  0  0  0  0
   53.7218   -6.7137   -2.7627 C   0  0  0  0  0  0  0  0  0  0  0  0
   55.1298   -6.6850   -3.3102 C   0  0  0  0  0  0  0  0  0  0  0  0
   55.3011   -5.3805   -4.0506 C   0  0  0  0  0  0  0  0  0  0  0  0
   54.4809   -5.5094   -5.2642 N   0  0  0  0  0  0  0  0  0  0  0  0
   53.1466   -5.9868   -5.1143 C   0  0  0  0  0  0  0  0  0  0  0  0
   52.7076   -6.1579   -3.7037 C   0  0  0  0  0  0  0  0  0  0  0  0
   54.6184   -5.9500   -1.1762 H   0  0  0  0  0  0  0  0  0  0  0  0
   58.2698   -4.0977  -11.8710 S   0  0  0  0  0  0  0  0  0  0  0  0
   57.4789   -4.1393  -13.4672 C   0  0  0  0  0  0  0  0  0  0  0  0
   56.4029   -4.9496  -13.7644 C   0  0  0  0  0  0  0  0  0  0  0  0
   55.8304   -4.9341  -15.0328 C   0  0  0  0  0  0  0  0  0  0  0  0
   56.3284   -4.1081  -16.0162 C   0  0  0  0  0  0  0  0  0  0  0  0
   57.4019   -3.2941  -15.7332 C   0  0  0  0  0  0  0  0  0  0  0  0
   57.9735   -3.3141  -14.4561 C   0  0  0  0  0  0  0  0  0  0  0  0
 11 12  1  0  0  0
 12 13  1  0  0  0
 13 14  1  0  0  0
 14 15  1  0  0  0
 15 16  1  0  0  0
 16 17  1  0  0  0
 15  1  1  0  0  0
  1  2  2  0  0  0
  2  3  1  0  0  0
  3  4  2  0  0  0
  4  5  1  0  0  0
  5 19  1  0  0  0
 19 20  1  0  0  0
 20 21  2  0  0  0
 21 22  1  0  0  0
 22 23  2  0  0  0
 23 24  1  0  0  0
 24 25  2  0  0  0
  5  6  2  0  0  0
  6  7  1  0  0  0
  7  8  2  0  0  0
  8  9  1  0  0  0
 17 12  1  0  0  0
  9  1  1  0  0  0
  8  3  1  0  0  0
 25 20  1  0  0  0
 11 18  1  0  0  0
  9 10  1  0  0  0
M  END
> <minimizedAffinity>
-7.40623

> <CNNscore>
0.3617013991

> <CNNaffinity>
5.8646383286

> <CNN_VS>
2.1212480068

> <CNNaffinity_variance>
0.0364152901

$$$$
[H]OC1([H])C([H])([H])C([H])([H])N(c2c([H])c3c([H])c(Sc4c([H])c([H])c([H])c([H])c4[H])c([H])nc3n2[H])C([H])([H])C1([H])[H]


 25 28  0  0  0  0  0  0  0  0999 V2000
   56.2518   -4.0865  -10.7576 C   0  0  0  0  0  0  0  0  0  0  0  0
   56.6527   -4.8020   -9.6504 C   0  0  0  0  0  0  0  0  0  0  0  0
   55.6549   -4.8289   -8.7015 C   0  0  0  0  0  0  0  0  0  0  0  0
   55.4977   -5.3798   -7.4341 C   0  0  0  0  0  0  0  0  0  0  0  0
   54.3311   -5.2218   -6.7161 C   0  0  0  0  0  0  0  0  0  0  0  0
   53.3258   -4.4854   -7.3256 C   0  0  0  0  0  0  0  0  0  0  0  0
   53.4726   -3.9500   -8.5517 N   0  0  0  0  0  0  0  0  0  0  0  0
   54.6191   -4.1064   -9.2547 C   0  0  0  0  0  0  0  0  0  0  0  0
   54.9905   -3.6709  -10.4796 N   0  0  0  0  0  0  0  0  0  0  0  0
   54.3861   -3.0997  -11.1078 H   0  0  0  0  0  0  0  0  0  0  0  0
   58.2134   -2.6223  -15.3192 O   0  0  0  0  0  0  0  0  0  0  0  0
   58.2042   -3.8106  -14.5526 C   0  0  0  0  0  0  0  0  0  0  0  0
   56.7578   -4.1644  -14.2969 C   0  0  0  0  0  0  0  0  0  0  0  0
   56.2740   -3.2977  -13.1593 C   0  0  0  0  0  0  0  0  0  0  0  0
   56.9532   -3.8114  -11.9606 N   0  0  0  0  0  0  0  0  0  0  0  0
   58.3586   -4.0337  -12.0396 C   0  0  0  0  0  0  0  0  0  0  0  0
   58.9860   -3.5706  -13.3060 C   0  0  0  0  0  0  0  0  0  0  0  0
   57.3841   -2.5787  -15.8618 H   0  0  0  0  0  0  0  0  0  0  0  0
   54.1054   -5.9183   -5.0722 S   0  0  0  0  0  0  0  0  0  0  0  0
   52.4448   -5.5869   -4.5173 C   0  0  0  0  0  0  0  0  0  0  0  0
   51.3886   -5.3479   -5.3716 C   0  0  0  0  0  0  0  0  0  0  0  0
   50.1141   -5.0954   -4.8729 C   0  0  0  0  0  0  0  0  0  0  0  0
   49.8837   -5.0796   -3.5149 C   0  0  0  0  0  0  0  0  0  0  0  0
   50.9289   -5.3167   -2.6508 C   0  0  0  0  0  0  0  0  0  0  0  0
   52.2081   -5.5698   -3.1582 C   0  0  0  0  0  0  0  0  0  0  0  0
 11 12  1  0  0  0
 12 13  1  0  0  0
 13 14  1  0  0  0
 14 15  1  0  0  0
 15 16  1  0  0  0
 16 17  1  0  0  0
 15  1  1  0  0  0
  1  2  2  0  0  0
  2  3  1  0  0  0
  3  4  2  0  0  0
  4  5  1  0  0  0
  5 19  1  0  0  0
 19 20  1  0  0  0
 20 21  2  0  0  0
 21 22  1  0  0  0
 22 23  2  0  0  0
 23 24  1  0  0  0
 24 25  2  0  0  0
  5  6  2  0  0  0
  6  7  1  0  0  0
  7  8  2  0  0  0
  8  9  1  0  0  0
 17 12  1  0  0  0
  9  1  1  0  0  0
  8  3  1  0  0  0
 25 20  1  0  0  0
 11 18  1  0  0  0
  9 10  1  0  0  0
M  END
> <minimizedAffinity>
-8.07577

> <CNNscore>
0.3470987678

> <CNNaffinity>
5.8753852844

> <CNN_VS>
2.0393390656

> <CNNaffinity_variance>
0.0900883526

$$$$
[H]OC1([H])C([H])([H])C([H])([H])N(c2c([H])c3c([H])c(Sc4c([H])c([H])c([H])c([H])c4[H])c([H])nc3n2[H])C([H])([H])C1([H])[H]


 25 28  0  0  0  0  0  0  0  0999 V2000
   56.9940   -4.1528  -12.0089 C   0  0  0  0  0  0  0  0  0  0  0  0
   55.9277   -3.9889  -11.1517 C   0  0  0  0  0  0  0  0  0  0  0  0
   56.2486   -4.4293   -9.8868 C   0  0  0  0  0  0  0  0  0  0  0  0
   55.5949   -4.5075   -8.6616 C   0  0  0  0  0  0  0  0  0  0  0  0
   56.2163   -5.0174   -7.5412 C   0  0  0  0  0  0  0  0  0  0  0  0
   57.5254   -5.4469   -7.7028 C   0  0  0  0  0  0  0  0  0  0  0  0
   58.1627   -5.3737   -8.8860 N   0  0  0  0  0  0  0  0  0  0  0  0
   57.5504   -4.8727   -9.9847 C   0  0  0  0  0  0  0  0  0  0  0  0
   57.9799   -4.7012  -11.2552 N   0  0  0  0  0  0  0  0  0  0  0  0
   58.9320   -4.9578  -11.5927 H   0  0  0  0  0  0  0  0  0  0  0  0
   56.6647   -2.7486  -16.9807 O   0  0  0  0  0  0  0  0  0  0  0  0
   57.3023   -3.7837  -16.2584 C   0  0  0  0  0  0  0  0  0  0  0  0
   56.2291   -4.5124  -15.4837 C   0  0  0  0  0  0  0  0  0  0  0  0
   55.9242   -3.6932  -14.2528 C   0  0  0  0  0  0  0  0  0  0  0  0
   57.1047   -3.8337  -13.3875 N   0  0  0  0  0  0  0  0  0  0  0  0
   58.3866   -3.6415  -13.9796 C   0  0  0  0  0  0  0  0  0  0  0  0
   58.3502   -3.1737  -15.3909 C   0  0  0  0  0  0  0  0  0  0  0  0
   55.7304   -3.0173  -17.1782 H   0  0  0  0  0  0  0  0  0  0  0  0
   55.3903   -5.1359   -5.9469 S   0  0  0  0  0  0  0  0  0  0  0  0
   53.6926   -5.6149   -6.1996 C   0  0  0  0  0  0  0  0  0  0  0  0
   53.1959   -6.0540   -7.4091 C   0  0  0  0  0  0  0  0  0  0  0  0
   51.8579   -6.4136   -7.5398 C   0  0  0  0  0  0  0  0  0  0  0  0
   51.0036   -6.3377   -6.4618 C   0  0  0  0  0  0  0  0  0  0  0  0
   51.4861   -5.9012   -5.2486 C   0  0  0  0  0  0  0  0  0  0  0  0
   52.8324   -5.5408   -5.1234 C   0  0  0  0  0  0  0  0  0  0  0  0
 11 12  1  0  0  0
 12 13  1  0  0  0
 13 14  1  0  0  0
 14 15  1  0  0  0
 15 16  1  0  0  0
 16 17  1  0  0  0
 15  1  1  0  0  0
  1  2  2  0  0  0
  2  3  1  0  0  0
  3  4  2  0  0  0
  4  5  1  0  0  0
  5 19  1  0  0  0
 19 20  1  0  0  0
 20 21  2  0  0  0
 21 22  1  0  0  0
 22 23  2  0  0  0
 23 24  1  0  0  0
 24 25  2  0  0  0
  5  6  2  0  0  0
  6  7  1  0  0  0
  7  8  2  0  0  0
  8  9  1  0  0  0
 17 12  1  0  0  0
  9  1  1  0  0  0
  8  3  1  0  0  0
 25 20  1  0  0  0
 11 18  1  0  0  0
  9 10  1  0  0  0
M  END
> <minimizedAffinity>
-7.87180

> <CNNscore>
0.3200361729

> <CNNaffinity>
5.7026720047

> <CNN_VS>
1.8250613213

> <CNNaffinity_variance>
0.1171957031

$$$$
[H]OC1([H])C([H])([H])C([H])([H])N(c2c([H])c3c([H])c(Sc4c([H])c([H])c([H])c([H])c4[H])c([H])nc3n2[H])C([H])([H])C1([H])[H]


 25 28  0  0  0  0  0  0  0  0999 V2000
   55.4009   -4.5549   -8.8046 C   0  0  0  0  0  0  0  0  0  0  0  0
   56.4028   -4.9756   -7.9573 C   0  0  0  0  0  0  0  0  0  0  0  0
   57.5593   -5.2301   -8.6605 C   0  0  0  0  0  0  0  0  0  0  0  0
   58.8435   -5.6622   -8.3465 C   0  0  0  0  0  0  0  0  0  0  0  0
   59.8108   -5.8211   -9.3162 C   0  0  0  0  0  0  0  0  0  0  0  0
   59.4338   -5.5272  -10.6185 C   0  0  0  0  0  0  0  0  0  0  0  0
   58.1925   -5.1089  -10.9280 N   0  0  0  0  0  0  0  0  0  0  0  0
   57.2444   -4.9537   -9.9741 C   0  0  0  0  0  0  0  0  0  0  0  0
   55.9550   -4.5529  -10.0431 N   0  0  0  0  0  0  0  0  0  0  0  0
   55.4700   -4.2847  -10.9258 H   0  0  0  0  0  0  0  0  0  0  0  0
   50.4319   -3.1356   -8.4982 O   0  0  0  0  0  0  0  0  0  0  0  0
   51.5992   -2.9167   -7.7307 C   0  0  0  0  0  0  0  0  0  0  0  0
   52.6281   -2.3018   -8.6506 C   0  0  0  0  0  0  0  0  0  0  0  0
   53.2385   -3.4210   -9.4594 C   0  0  0  0  0  0  0  0  0  0  0  0
   54.0626   -4.1843   -8.5107 N   0  0  0  0  0  0  0  0  0  0  0  0
   53.4743   -4.5462   -7.2642 C   0  0  0  0  0  0  0  0  0  0  0  0
   52.0281   -4.2198   -7.1469 C   0  0  0  0  0  0  0  0  0  0  0  0
   50.3939   -2.4677   -9.2306 H   0  0  0  0  0  0  0  0  0  0  0  0
   61.4769   -6.3854   -8.9369 S   0  0  0  0  0  0  0  0  0  0  0  0
   62.2403   -7.0029  -10.4240 C   0  0  0  0  0  0  0  0  0  0  0  0
   62.5112   -6.2175  -11.5250 C   0  0  0  0  0  0  0  0  0  0  0  0
   63.1101   -6.7625  -12.6569 C   0  0  0  0  0  0  0  0  0  0  0  0
   63.4438   -8.0983  -12.6985 C   0  0  0  0  0  0  0  0  0  0  0  0
   63.1791   -8.8937  -11.6065 C   0  0  0  0  0  0  0  0  0  0  0  0
   62.5766   -8.3401  -10.4713 C   0  0  0  0  0  0  0  0  0  0  0  0
 11 12  1  0  0  0
 12 13  1  0  0  0
 13 14  1  0  0  0
 14 15  1  0  0  0
 15 16  1  0  0  0
 16 17  1  0  0  0
 15  1  1  0  0  0
  1  2  2  0  0  0
  2  3  1  0  0  0
  3  4  2  0  0  0
  4  5  1  0  0  0
  5 19  1  0  0  0
 19 20  1  0  0  0
 20 21  2  0  0  0
 21 22  1  0  0  0
 22 23  2  0  0  0
 23 24  1  0  0  0
 24 25  2  0  0  0
  5  6  2  0  0  0
  6  7  1  0  0  0
  7  8  2  0  0  0
  8  9  1  0  0  0
 17 12  1  0  0  0
  9  1  1  0  0  0
  8  3  1  0  0  0
 25 20  1  0  0  0
 11 18  1  0  0  0
  9 10  1  0  0  0
M  END
> <minimizedAffinity>
-6.82947

> <CNNscore>
0.3096719980

> <CNNaffinity>
5.2758560181

> <CNN_VS>
1.6337848902

> <CNNaffinity_variance>
0.1946029961

$$$$
[H]c1nc([H])c(C(=O)N([H])C([H])([H])c2c([H])c([H])c3c([H])c([H])c([H])c([H])c3c2[H])c(N2C([H])([H])C([H])([H])C([H])(N(c3c([H])c([H])c(C([H])([H])[H])c([H])c3[H])C([H])([H])[H])C([H])([H])C2([H])[H])c1[H]


 36 40  0  0  0  0  0  0  0  0999 V2000
   56.9402   -6.1776   -1.5610 C   0  0  0  0  0  0  0  0  0  0  0  0
   57.6027   -4.9654   -1.2354 C   0  0  0  0  0  0  0  0  0  0  0  0
   58.9554   -4.8314   -1.4200 C   0  0  0  0  0  0  0  0  0  0  0  0
   59.6708   -5.8890   -1.9311 N   0  0  0  0  0  0  0  0  0  0  0  0
   59.1025   -7.0687   -2.2626 C   0  0  0  0  0  0  0  0  0  0  0  0
   57.7518   -7.1400   -2.0521 C   0  0  0  0  0  0  0  0  0  0  0  0
   52.7098   -6.2206   -1.4049 C   0  0  0  0  0  0  0  0  0  0  0  0
   53.4083   -7.5416   -1.1700 C   0  0  0  0  0  0  0  0  0  0  0  0
   54.8280   -7.3695   -0.7211 C   0  0  0  0  0  0  0  0  0  0  0  0
   55.5708   -6.2938   -1.2713 N   0  0  0  0  0  0  0  0  0  0  0  0
   54.7969   -5.0539   -1.5512 C   0  0  0  0  0  0  0  0  0  0  0  0
   53.5599   -5.4349   -2.3549 C   0  0  0  0  0  0  0  0  0  0  0  0
   51.3954   -6.4386   -1.9228 N   0  0  0  0  0  0  0  0  0  0  0  0
   50.5152   -7.4171   -1.2640 C   0  0  0  0  0  0  0  0  0  0  0  0
   49.4277   -3.6672   -6.5231 C   0  0  0  0  0  0  0  0  0  0  0  0
   49.9122   -4.3809   -5.2925 C   0  0  0  0  0  0  0  0  0  0  0  0
   50.7586   -5.4570   -5.4714 C   0  0  0  0  0  0  0  0  0  0  0  0
   51.2342   -6.1342   -4.3235 C   0  0  0  0  0  0  0  0  0  0  0  0
   50.8988   -5.7667   -3.0550 C   0  0  0  0  0  0  0  0  0  0  0  0
   50.0552   -4.6866   -2.9665 C   0  0  0  0  0  0  0  0  0  0  0  0
   49.5460   -3.9757   -4.0349 C   0  0  0  0  0  0  0  0  0  0  0  0
   57.0285   -8.4018   -2.4664 C   0  0  0  0  0  0  0  0  0  0  0  0
   57.4908   -9.4333   -1.9256 O   0  0  0  0  0  0  0  0  0  0  0  0
   56.0151   -8.3227   -3.3176 N   0  0  0  0  0  0  0  0  0  0  0  0
   55.8772   -9.6963   -3.3489 H   0  0  0  0  0  0  0  0  0  0  0  0
   54.9225   -8.2688   -4.2306 C   0  0  0  0  0  0  0  0  0  0  0  0
   55.1834   -7.1525   -5.2127 C   0  0  0  0  0  0  0  0  0  0  0  0
   56.4599   -6.6097   -5.2689 C   0  0  0  0  0  0  0  0  0  0  0  0
   56.7943   -5.5716   -6.0806 C   0  0  0  0  0  0  0  0  0  0  0  0
   55.8348   -5.0162   -6.8925 C   0  0  0  0  0  0  0  0  0  0  0  0
   56.1572   -3.9349   -7.7254 C   0  0  0  0  0  0  0  0  0  0  0  0
   55.2092   -3.3575   -8.5385 C   0  0  0  0  0  0  0  0  0  0  0  0
   53.9198   -3.8631   -8.5271 C   0  0  0  0  0  0  0  0  0  0  0  0
   53.6236   -4.9436   -7.6855 C   0  0  0  0  0  0  0  0  0  0  0  0
   54.5572   -5.5131   -6.8771 C   0  0  0  0  0  0  0  0  0  0  0  0
   54.2327   -6.5925   -6.0286 C   0  0  0  0  0  0  0  0  0  0  0  0
 15 16  1  0  0  0
 16 17  2  0  0  0
 17 18  1  0  0  0
 18 19  2  0  0  0
 19 20  1  0  0  0
 20 21  2  0  0  0
 19 13  1  0  0  0
 13 14  1  0  0  0
 13  7  1  0  0  0
  7  8  1  0  0  0
  8  9  1  0  0  0
  9 10  1  0  0  0
 10 11  1  0  0  0
 11 12  1  0  0  0
 10  1  1  0  0  0
  1  2  2  0  0  0
  2  3  1  0  0  0
  3  4  2  0  0  0
  4  5  1  0  0  0
  5  6  2  0  0  0
  6 22  1  0  0  0
 22 23  2  0  0  0
 22 24  1  0  0  0
 24 26  1  0  0  0
 26 27  1  0  0  0
 27 28  2  0  0  0
 28 29  1  0  0  0
 29 30  2  0  0  0
 30 31  1  0  0  0
 31 32  2  0  0  0
 32 33  1  0  0  0
 33 34  2  0  0  0
 34 35  1  0  0  0
 35 36  2  0  0  0
 21 16  1  0  0  0
 12  7  1  0  0  0
  6  1  1  0  0  0
 36 27  1  0  0  0
 35 30  1  0  0  0
 24 25  1  0  0  0
M  END
> <minimizedAffinity>
-10.09331

> <CNNscore>
0.3157288730

> <CNNaffinity>
6.7799463272

> <CNN_VS>
2.1406247616

> <CNNaffinity_variance>
0.5895949602

$$$$
[H]c1nc([H])c(C(=O)N([H])C([H])([H])c2c([H])c([H])c3c([H])c([H])c([H])c([H])c3c2[H])c(N2C([H])([H])C([H])([H])C([H])(N(c3c([H])c([H])c(C([H])([H])[H])c([H])c3[H])C([H])([H])[H])C([H])([H])C2([H])[H])c1[H]


 36 40  0  0  0  0  0  0  0  0999 V2000
   56.8283   -5.0414   -7.7813 C   0  0  0  0  0  0  0  0  0  0  0  0
   58.1532   -5.4700   -8.0558 C   0  0  0  0  0  0  0  0  0  0  0  0
   58.6577   -5.4236   -9.3307 C   0  0  0  0  0  0  0  0  0  0  0  0
   57.8638   -4.9509  -10.3496 N   0  0  0  0  0  0  0  0  0  0  0  0
   56.5960   -4.5269  -10.1568 C   0  0  0  0  0  0  0  0  0  0  0  0
   56.1508   -4.6012   -8.8645 C   0  0  0  0  0  0  0  0  0  0  0  0
   55.8705   -6.0591   -3.7851 C   0  0  0  0  0  0  0  0  0  0  0  0
   56.2197   -4.6111   -4.0487 C   0  0  0  0  0  0  0  0  0  0  0  0
   56.0261   -4.2249   -5.4840 C   0  0  0  0  0  0  0  0  0  0  0  0
   56.3303   -5.1913   -6.4766 N   0  0  0  0  0  0  0  0  0  0  0  0
   56.0342   -6.6035   -6.1121 C   0  0  0  0  0  0  0  0  0  0  0  0
   56.6598   -6.8863   -4.7521 C   0  0  0  0  0  0  0  0  0  0  0  0
   56.1634   -6.4020   -2.4287 N   0  0  0  0  0  0  0  0  0  0  0  0
   55.3121   -5.8709   -1.3519 C   0  0  0  0  0  0  0  0  0  0  0  0
   60.5612   -9.7178   -0.8855 C   0  0  0  0  0  0  0  0  0  0  0  0
   59.4327   -8.8195   -1.3076 C   0  0  0  0  0  0  0  0  0  0  0  0
   58.1822   -9.3884   -1.4451 C   0  0  0  0  0  0  0  0  0  0  0  0
   57.1051   -8.5555   -1.8307 C   0  0  0  0  0  0  0  0  0  0  0  0
   57.2482   -7.2208   -2.0645 C   0  0  0  0  0  0  0  0  0  0  0  0
   58.5230   -6.7358   -1.9036 C   0  0  0  0  0  0  0  0  0  0  0  0
   59.6249   -7.4808   -1.5338 C   0  0  0  0  0  0  0  0  0  0  0  0
   54.7670   -4.0769   -8.5529 C   0  0  0  0  0  0  0  0  0  0  0  0
   54.6660   -2.8369   -8.7029 O   0  0  0  0  0  0  0  0  0  0  0  0
   53.8199   -4.9229   -8.1719 N   0  0  0  0  0  0  0  0  0  0  0  0
   52.9211   -3.8941   -7.9704 H   0  0  0  0  0  0  0  0  0  0  0  0
   52.7820   -5.8080   -7.7601 C   0  0  0  0  0  0  0  0  0  0  0  0
   51.6957   -4.9890   -7.1060 C   0  0  0  0  0  0  0  0  0  0  0  0
   51.4034   -3.7396   -7.6360 C   0  0  0  0  0  0  0  0  0  0  0  0
   50.4790   -2.8992   -7.0996 C   0  0  0  0  0  0  0  0  0  0  0  0
   49.7899   -3.2862   -5.9755 C   0  0  0  0  0  0  0  0  0  0  0  0
   48.8435   -2.4265   -5.3991 C   0  0  0  0  0  0  0  0  0  0  0  0
   48.1500   -2.7900   -4.2678 C   0  0  0  0  0  0  0  0  0  0  0  0
   48.3976   -4.0286   -3.6998 C   0  0  0  0  0  0  0  0  0  0  0  0
   49.3485   -4.8685   -4.2949 C   0  0  0  0  0  0  0  0  0  0  0  0
   50.0390   -4.5099   -5.4101 C   0  0  0  0  0  0  0  0  0  0  0  0
   51.0011   -5.3672   -5.9846 C   0  0  0  0  0  0  0  0  0  0  0  0
 15 16  1  0  0  0
 16 17  2  0  0  0
 17 18  1  0  0  0
 18 19  2  0  0  0
 19 20  1  0  0  0
 20 21  2  0  0  0
 19 13  1  0  0  0
 13 14  1  0  0  0
 13  7  1  0  0  0
  7  8  1  0  0  0
  8  9  1  0  0  0
  9 10  1  0  0  0
 10 11  1  0  0  0
 11 12  1  0  0  0
 10  1  1  0  0  0
  1  2  2  0  0  0
  2  3  1  0  0  0
  3  4  2  0  0  0
  4  5  1  0  0  0
  5  6  2  0  0  0
  6 22  1  0  0  0
 22 23  2  0  0  0
 22 24  1  0  0  0
 24 26  1  0  0  0
 26 27  1  0  0  0
 27 28  2  0  0  0
 28 29  1  0  0  0
 29 30  2  0  0  0
 30 31  1  0  0  0
 31 32  2  0  0  0
 32 33  1  0  0  0
 33 34  2  0  0  0
 34 35  1  0  0  0
 35 36  2  0  0  0
 21 16  1  0  0  0
 12  7  1  0  0  0
  6  1  1  0  0  0
 36 27  1  0  0  0
 35 30  1  0  0  0
 24 25  1  0  0  0
M  END
> <minimizedAffinity>
-10.07625

> <CNNscore>
0.2923248410

> <CNNaffinity>
7.0069060326

> <CNN_VS>
2.0482926369

> <CNNaffinity_variance>
0.1857378930

$$$$
[H]c1nc([H])c(C(=O)N([H])C([H])([H])c2c([H])c([H])c3c([H])c([H])c([H])c([H])c3c2[H])c(N2C([H])([H])C([H])([H])C([H])(N(c3c([H])c([H])c(C([H])([H])[H])c([H])c3[H])C([H])([H])[H])C([H])([H])C2([H])[H])c1[H]


 36 40  0  0  0  0  0  0  0  0999 V2000
   52.3967   -5.8845   -4.1959 C   0  0  0  0  0  0  0  0  0  0  0  0
   51.7199   -5.7837   -2.9524 C   0  0  0  0  0  0  0  0  0  0  0  0
   50.4287   -5.3247   -2.8893 C   0  0  0  0  0  0  0  0  0  0  0  0
   49.7877   -4.9630   -4.0512 N   0  0  0  0  0  0  0  0  0  0  0  0
   50.3730   -5.0354   -5.2663 C   0  0  0  0  0  0  0  0  0  0  0  0
   51.6614   -5.4977   -5.2617 C   0  0  0  0  0  0  0  0  0  0  0  0
   56.5364   -6.5496   -3.6101 C   0  0  0  0  0  0  0  0  0  0  0  0
   55.6386   -7.7644   -3.5303 C   0  0  0  0  0  0  0  0  0  0  0  0
   54.3360   -7.5649   -4.2446 C   0  0  0  0  0  0  0  0  0  0  0  0
   53.7454   -6.2763   -4.1972 N   0  0  0  0  0  0  0  0  0  0  0  0
   54.6967   -5.1318   -4.1967 C   0  0  0  0  0  0  0  0  0  0  0  0
   55.7415   -5.3805   -3.1161 C   0  0  0  0  0  0  0  0  0  0  0  0
   57.7197   -6.7542   -2.8348 N   0  0  0  0  0  0  0  0  0  0  0  0
   58.0415   -5.8127   -1.7502 C   0  0  0  0  0  0  0  0  0  0  0  0
   61.3948  -11.0402   -3.7506 C   0  0  0  0  0  0  0  0  0  0  0  0
   60.4313   -9.9044   -3.5505 C   0  0  0  0  0  0  0  0  0  0  0  0
   59.6018   -9.9588   -2.4482 C   0  0  0  0  0  0  0  0  0  0  0  0
   58.6958   -8.8924   -2.2372 C   0  0  0  0  0  0  0  0  0  0  0  0
   58.6126   -7.8161   -3.0687 C   0  0  0  0  0  0  0  0  0  0  0  0
   59.4732   -7.8402   -4.1386 C   0  0  0  0  0  0  0  0  0  0  0  0
   60.3821   -8.8419   -4.4158 C   0  0  0  0  0  0  0  0  0  0  0  0
   52.3619   -5.6778   -6.5898 C   0  0  0  0  0  0  0  0  0  0  0  0
   52.4696   -6.8792   -6.9297 O   0  0  0  0  0  0  0  0  0  0  0  0
   52.7796   -4.6106   -7.2565 N   0  0  0  0  0  0  0  0  0  0  0  0
   53.3608   -5.3944   -8.2336 H   0  0  0  0  0  0  0  0  0  0  0  0
   53.2395   -3.4825   -7.9955 C   0  0  0  0  0  0  0  0  0  0  0  0
   54.5382   -3.8567   -8.6677 C   0  0  0  0  0  0  0  0  0  0  0  0
   54.6181   -3.7530  -10.0498 C   0  0  0  0  0  0  0  0  0  0  0  0
   55.7205   -4.1074  -10.7623 C   0  0  0  0  0  0  0  0  0  0  0  0
   56.8207   -4.5969  -10.1003 C   0  0  0  0  0  0  0  0  0  0  0  0
   57.9614   -4.9820  -10.8196 C   0  0  0  0  0  0  0  0  0  0  0  0
   59.0699   -5.4841  -10.1774 C   0  0  0  0  0  0  0  0  0  0  0  0
   59.0474   -5.6038   -8.7978 C   0  0  0  0  0  0  0  0  0  0  0  0
   57.8951   -5.2125   -8.1028 C   0  0  0  0  0  0  0  0  0  0  0  0
   56.7963   -4.7207   -8.7353 C   0  0  0  0  0  0  0  0  0  0  0  0
   55.6425   -4.3448   -8.0155 C   0  0  0  0  0  0  0  0  0  0  0  0
 15 16  1  0  0  0
 16 17  2  0  0  0
 17 18  1  0  0  0
 18 19  2  0  0  0
 19 20  1  0  0  0
 20 21  2  0  0  0
 19 13  1  0  0  0
 13 14  1  0  0  0
 13  7  1  0  0  0
  7  8  1  0  0  0
  8  9  1  0  0  0
  9 10  1  0  0  0
 10 11  1  0  0  0
 11 12  1  0  0  0
 10  1  1  0  0  0
  1  2  2  0  0  0
  2  3  1  0  0  0
  3  4  2  0  0  0
  4  5  1  0  0  0
  5  6  2  0  0  0
  6 22  1  0  0  0
 22 23  2  0  0  0
 22 24  1  0  0  0
 24 26  1  0  0  0
 26 27  1  0  0  0
 27 28  2  0  0  0
 28 29  1  0  0  0
 29 30  2  0  0  0
 30 31  1  0  0  0
 31 32  2  0  0  0
 32 33  1  0  0  0
 33 34  2  0  0  0
 34 35  1  0  0  0
 35 36  2  0  0  0
 21 16  1  0  0  0
 12  7  1  0  0  0
  6  1  1  0  0  0
 36 27  1  0  0  0
 35 30  1  0  0  0
 24 25  1  0  0  0
M  END
> <minimizedAffinity>
-9.50652

> <CNNscore>
0.2629751861

> <CNNaffinity>
6.7714209557

> <CNN_VS>
1.7807157040

> <CNNaffinity_variance>
0.2630757391

$$$$
[H]c1nc([H])c(C(=O)N([H])C([H])([H])c2c([H])c([H])c3c([H])c([H])c([H])c([H])c3c2[H])c(N2C([H])([H])C([H])([H])C([H])(N(c3c([H])c([H])c(C([H])([H])[H])c([H])c3[H])C([H])([H])[H])C([H])([H])C2([H])[H])c1[H]


 36 40  0  0  0  0  0  0  0  0999 V2000
   56.5147   -4.7725   -8.0034 C   0  0  0  0  0  0  0  0  0  0  0  0
   57.7083   -5.4666   -8.3321 C   0  0  0  0  0  0  0  0  0  0  0  0
   58.2354   -5.3999   -9.5968 C   0  0  0  0  0  0  0  0  0  0  0  0
   57.5946   -4.6455  -10.5518 N   0  0  0  0  0  0  0  0  0  0  0  0
   56.4571   -3.9602  -10.3053 C   0  0  0  0  0  0  0  0  0  0  0  0
   55.9808   -4.0697   -9.0267 C   0  0  0  0  0  0  0  0  0  0  0  0
   55.1537   -6.0212   -4.1941 C   0  0  0  0  0  0  0  0  0  0  0  0
   56.0366   -4.7934   -4.2274 C   0  0  0  0  0  0  0  0  0  0  0  0
   56.0369   -4.1214   -5.5672 C   0  0  0  0  0  0  0  0  0  0  0  0
   55.9691   -4.9440   -6.7207 N   0  0  0  0  0  0  0  0  0  0  0  0
   55.1468   -6.1768   -6.5845 C   0  0  0  0  0  0  0  0  0  0  0  0
   55.5866   -6.9066   -5.3216 C   0  0  0  0  0  0  0  0  0  0  0  0
   55.2634   -6.6782   -2.9294 N   0  0  0  0  0  0  0  0  0  0  0  0
   56.5983   -6.9888   -2.3929 C   0  0  0  0  0  0  0  0  0  0  0  0
   50.7526   -8.2735    0.2049 C   0  0  0  0  0  0  0  0  0  0  0  0
   51.9224   -7.8761   -0.6508 C   0  0  0  0  0  0  0  0  0  0  0  0
   52.6172   -6.7382   -0.2921 C   0  0  0  0  0  0  0  0  0  0  0  0
   53.7288   -6.3548   -1.0794 C   0  0  0  0  0  0  0  0  0  0  0  0
   54.1443   -7.0618   -2.1677 C   0  0  0  0  0  0  0  0  0  0  0  0
   53.3997   -8.1798   -2.4535 C   0  0  0  0  0  0  0  0  0  0  0  0
   52.3029   -8.6185   -1.7389 C   0  0  0  0  0  0  0  0  0  0  0  0
   54.7515   -3.2734   -8.6502 C   0  0  0  0  0  0  0  0  0  0  0  0
   55.0231   -2.1522   -8.1608 O   0  0  0  0  0  0  0  0  0  0  0  0
   53.5494   -3.7918   -8.8603 N   0  0  0  0  0  0  0  0  0  0  0  0
   52.9308   -2.7088   -8.2675 H   0  0  0  0  0  0  0  0  0  0  0  0
   52.2447   -4.3229   -9.0741 C   0  0  0  0  0  0  0  0  0  0  0  0
   51.5012   -4.2904   -7.7608 C   0  0  0  0  0  0  0  0  0  0  0  0
   50.5358   -3.3103   -7.5746 C   0  0  0  0  0  0  0  0  0  0  0  0
   49.8400   -3.1587   -6.4165 C   0  0  0  0  0  0  0  0  0  0  0  0
   50.0912   -4.0066   -5.3647 C   0  0  0  0  0  0  0  0  0  0  0  0
   49.3943   -3.8560   -4.1570 C   0  0  0  0  0  0  0  0  0  0  0  0
   49.6377   -4.6875   -3.0882 C   0  0  0  0  0  0  0  0  0  0  0  0
   50.5870   -5.6873   -3.2204 C   0  0  0  0  0  0  0  0  0  0  0  0
   51.2697   -5.8162   -4.4374 C   0  0  0  0  0  0  0  0  0  0  0  0
   51.0348   -4.9926   -5.4938 C   0  0  0  0  0  0  0  0  0  0  0  0
   51.7436   -5.1334   -6.7055 C   0  0  0  0  0  0  0  0  0  0  0  0
 15 16  1  0  0  0
 16 17  2  0  0  0
 17 18  1  0  0  0
 18 19  2  0  0  0
 19 20  1  0  0  0
 20 21  2  0  0  0
 19 13  1  0  0  0
 13 14  1  0  0  0
 13  7  1  0  0  0
  7  8  1  0  0  0
  8  9  1  0  0  0
  9 10  1  0  0  0
 10 11  1  0  0  0
 11 12  1  0  0  0
 10  1  1  0  0  0
  1  2  2  0  0  0
  2  3  1  0  0  0
  3  4  2  0  0  0
  4  5  1  0  0  0
  5  6  2  0  0  0
  6 22  1  0  0  0
 22 23  2  0  0  0
 22 24  1  0  0  0
 24 26  1  0  0  0
 26 27  1  0  0  0
 27 28  2  0  0  0
 28 29  1  0  0  0
 29 30  2  0  0  0
 30 31  1  0  0  0
 31 32  2  0  0  0
 32 33  1  0  0  0
 33 34  2  0  0  0
 34 35  1  0  0  0
 35 36  2  0  0  0
 21 16  1  0  0  0
 12  7  1  0  0  0
  6  1  1  0  0  0
 36 27  1  0  0  0
 35 30  1  0  0  0
 24 25  1  0  0  0
M  END
> <minimizedAffinity>
-9.51603

> <CNNscore>
0.2244683355

> <CNNaffinity>
7.2202553749

> <CNN_VS>
1.6207187176

> <CNNaffinity_variance>
0.2299865931

$$$$
[H]c1nc([H])c(C(=O)N([H])C([H])([H])c2c([H])c([H])c3c([H])c([H])c([H])c([H])c3c2[H])c(N2C([H])([H])C([H])([H])C([H])(N(c3c([H])c([H])c(C([H])([H])[H])c([H])c3[H])C([H])([H])[H])C([H])([H])C2([H])[H])c1[H]


 36 40  0  0  0  0  0  0  0  0999 V2000
   56.7106   -4.9864   -7.8525 C   0  0  0  0  0  0  0  0  0  0  0  0
   57.9709   -5.6079   -8.0521 C   0  0  0  0  0  0  0  0  0  0  0  0
   58.6129   -5.5243   -9.2616 C   0  0  0  0  0  0  0  0  0  0  0  0
   58.0224   -4.8242  -10.2876 N   0  0  0  0  0  0  0  0  0  0  0  0
   56.8262   -4.2089  -10.1642 C   0  0  0  0  0  0  0  0  0  0  0  0
   56.2360   -4.3319   -8.9353 C   0  0  0  0  0  0  0  0  0  0  0  0
   55.0492   -6.2772   -4.1788 C   0  0  0  0  0  0  0  0  0  0  0  0
   55.8849   -5.0170   -4.1370 C   0  0  0  0  0  0  0  0  0  0  0  0
   55.9846   -4.3484   -5.4749 C   0  0  0  0  0  0  0  0  0  0  0  0
   56.0550   -5.1755   -6.6249 N   0  0  0  0  0  0  0  0  0  0  0  0
   55.2703   -6.4382   -6.5586 C   0  0  0  0  0  0  0  0  0  0  0  0
   55.6178   -7.1481   -5.2562 C   0  0  0  0  0  0  0  0  0  0  0  0
   55.0655   -6.9268   -2.9056 N   0  0  0  0  0  0  0  0  0  0  0  0
   56.3541   -7.3283   -2.3186 C   0  0  0  0  0  0  0  0  0  0  0  0
   50.3037   -8.1740    0.0075 C   0  0  0  0  0  0  0  0  0  0  0  0
   51.5337   -7.8170   -0.7788 C   0  0  0  0  0  0  0  0  0  0  0  0
   52.7580   -8.1448   -0.2310 C   0  0  0  0  0  0  0  0  0  0  0  0
   53.9269   -7.8267   -0.9625 C   0  0  0  0  0  0  0  0  0  0  0  0
   53.8948   -7.2193   -2.1818 C   0  0  0  0  0  0  0  0  0  0  0  0
   52.6382   -6.9297   -2.6542 C   0  0  0  0  0  0  0  0  0  0  0  0
   51.4524   -7.2038   -2.0024 C   0  0  0  0  0  0  0  0  0  0  0  0
   54.9293   -3.6100   -8.6935 C   0  0  0  0  0  0  0  0  0  0  0  0
   55.0837   -2.4081   -8.3741 O   0  0  0  0  0  0  0  0  0  0  0  0
   53.7861   -4.2663   -8.8352 N   0  0  0  0  0  0  0  0  0  0  0  0
   53.0555   -3.1719   -8.4164 H   0  0  0  0  0  0  0  0  0  0  0  0
   52.5419   -4.9455   -8.9798 C   0  0  0  0  0  0  0  0  0  0  0  0
   51.7649   -4.7848   -7.6957 C   0  0  0  0  0  0  0  0  0  0  0  0
   51.8678   -5.7813   -6.7346 C   0  0  0  0  0  0  0  0  0  0  0  0
   51.1770   -5.7630   -5.5638 C   0  0  0  0  0  0  0  0  0  0  0  0
   50.3275   -4.7156   -5.3000 C   0  0  0  0  0  0  0  0  0  0  0  0
   49.5951   -4.6870   -4.1044 C   0  0  0  0  0  0  0  0  0  0  0  0
   48.7314   -3.6530   -3.8252 C   0  0  0  0  0  0  0  0  0  0  0  0
   48.5940   -2.6282   -4.7467 C   0  0  0  0  0  0  0  0  0  0  0  0
   49.3368   -2.6809   -5.9338 C   0  0  0  0  0  0  0  0  0  0  0  0
   50.1873   -3.7041   -6.2146 C   0  0  0  0  0  0  0  0  0  0  0  0
   50.9156   -3.7421   -7.4224 C   0  0  0  0  0  0  0  0  0  0  0  0
 15 16  1  0  0  0
 16 17  2  0  0  0
 17 18  1  0  0  0
 18 19  2  0  0  0
 19 20  1  0  0  0
 20 21  2  0  0  0
 19 13  1  0  0  0
 13 14  1  0  0  0
 13  7  1  0  0  0
  7  8  1  0  0  0
  8  9  1  0  0  0
  9 10  1  0  0  0
 10 11  1  0  0  0
 11 12  1  0  0  0
 10  1  1  0  0  0
  1  2  2  0  0  0
  2  3  1  0  0  0
  3  4  2  0  0  0
  4  5  1  0  0  0
  5  6  2  0  0  0
  6 22  1  0  0  0
 22 23  2  0  0  0
 22 24  1  0  0  0
 24 26  1  0  0  0
 26 27  1  0  0  0
 27 28  2  0  0  0
 28 29  1  0  0  0
 29 30  2  0  0  0
 30 31  1  0  0  0
 31 32  2  0  0  0
 32 33  1  0  0  0
 33 34  2  0  0  0
 34 35  1  0  0  0
 35 36  2  0  0  0
 21 16  1  0  0  0
 12  7  1  0  0  0
  6  1  1  0  0  0
 36 27  1  0  0  0
 35 30  1  0  0  0
 24 25  1  0  0  0
M  END
> <minimizedAffinity>
-10.15978

> <CNNscore>
0.2237167060

> <CNNaffinity>
7.1880402565

> <CNN_VS>
1.6080846786

> <CNNaffinity_variance>
0.2488497943

$$$$
[H]c1nc([H])c(C(=O)N([H])C([H])([H])c2c([H])c([H])c3c([H])c([H])c([H])c([H])c3c2[H])c(N2C([H])([H])C([H])([H])C([H])(N(c3c([H])c([H])c(C([H])([H])[H])c([H])c3[H])C([H])([H])[H])C([H])([H])C2([H])[H])c1[H]


 36 40  0  0  0  0  0  0  0  0999 V2000
   58.2656   -5.1313  -10.1796 C   0  0  0  0  0  0  0  0  0  0  0  0
   58.4249   -4.8451  -11.5606 C   0  0  0  0  0  0  0  0  0  0  0  0
   57.4549   -4.1680  -12.2552 C   0  0  0  0  0  0  0  0  0  0  0  0
   56.3180   -3.7616  -11.5965 N   0  0  0  0  0  0  0  0  0  0  0  0
   56.1042   -4.0003  -10.2843 C   0  0  0  0  0  0  0  0  0  0  0  0
   57.1069   -4.6820   -9.6490 C   0  0  0  0  0  0  0  0  0  0  0  0
   61.4068   -7.6968   -8.9656 C   0  0  0  0  0  0  0  0  0  0  0  0
   61.5057   -6.2526   -8.5267 C   0  0  0  0  0  0  0  0  0  0  0  0
   60.1758   -5.5612   -8.5201 C   0  0  0  0  0  0  0  0  0  0  0  0
   59.2467   -5.9031   -9.5358 N   0  0  0  0  0  0  0  0  0  0  0  0
   59.2653   -7.3255   -9.9728 C   0  0  0  0  0  0  0  0  0  0  0  0
   60.7056   -7.7087  -10.2887 C   0  0  0  0  0  0  0  0  0  0  0  0
   62.7086   -8.2814   -9.0481 N   0  0  0  0  0  0  0  0  0  0  0  0
   63.3839   -8.3537  -10.3539 C   0  0  0  0  0  0  0  0  0  0  0  0
   65.4234  -10.3861   -4.4747 C   0  0  0  0  0  0  0  0  0  0  0  0
   64.7469   -9.8292   -5.6957 C   0  0  0  0  0  0  0  0  0  0  0  0
   63.4089  -10.1207   -5.8720 C   0  0  0  0  0  0  0  0  0  0  0  0
   62.7522   -9.5953   -7.0101 C   0  0  0  0  0  0  0  0  0  0  0  0
   63.3803   -8.8122   -7.9315 C   0  0  0  0  0  0  0  0  0  0  0  0
   64.7084   -8.5698   -7.6799 C   0  0  0  0  0  0  0  0  0  0  0  0
   65.4208   -9.0465   -6.5975 C   0  0  0  0  0  0  0  0  0  0  0  0
   56.9769   -4.9245   -8.1620 C   0  0  0  0  0  0  0  0  0  0  0  0
   57.9158   -4.4255   -7.4987 O   0  0  0  0  0  0  0  0  0  0  0  0
   55.9356   -5.6033   -7.7008 N   0  0  0  0  0  0  0  0  0  0  0  0
   56.4229   -5.5583   -6.4094 H   0  0  0  0  0  0  0  0  0  0  0  0
   54.8276   -6.3294   -7.1760 C   0  0  0  0  0  0  0  0  0  0  0  0
   53.6281   -5.4131   -7.1606 C   0  0  0  0  0  0  0  0  0  0  0  0
   53.5512   -4.4128   -8.1202 C   0  0  0  0  0  0  0  0  0  0  0  0
   52.5417   -3.5035   -8.1710 C   0  0  0  0  0  0  0  0  0  0  0  0
   51.5385   -3.5589   -7.2335 C   0  0  0  0  0  0  0  0  0  0  0  0
   50.4970   -2.6200   -7.2607 C   0  0  0  0  0  0  0  0  0  0  0  0
   49.4883   -2.6512   -6.3255 C   0  0  0  0  0  0  0  0  0  0  0  0
   49.5117   -3.6322   -5.3480 C   0  0  0  0  0  0  0  0  0  0  0  0
   50.5638   -4.5578   -5.3427 C   0  0  0  0  0  0  0  0  0  0  0  0
   51.5647   -4.5264   -6.2627 C   0  0  0  0  0  0  0  0  0  0  0  0
   52.6207   -5.4614   -6.2300 C   0  0  0  0  0  0  0  0  0  0  0  0
 15 16  1  0  0  0
 16 17  2  0  0  0
 17 18  1  0  0  0
 18 19  2  0  0  0
 19 20  1  0  0  0
 20 21  2  0  0  0
 19 13  1  0  0  0
 13 14  1  0  0  0
 13  7  1  0  0  0
  7  8  1  0  0  0
  8  9  1  0  0  0
  9 10  1  0  0  0
 10 11  1  0  0  0
 11 12  1  0  0  0
 10  1  1  0  0  0
  1  2  2  0  0  0
  2  3  1  0  0  0
  3  4  2  0  0  0
  4  5  1  0  0  0
  5  6  2  0  0  0
  6 22  1  0  0  0
 22 23  2  0  0  0
 22 24  1  0  0  0
 24 26  1  0  0  0
 26 27  1  0  0  0
 27 28  2  0  0  0
 28 29  1  0  0  0
 29 30  2  0  0  0
 30 31  1  0  0  0
 31 32  2  0  0  0
 32 33  1  0  0  0
 33 34  2  0  0  0
 34 35  1  0  0  0
 35 36  2  0  0  0
 21 16  1  0  0  0
 12  7  1  0  0  0
  6  1  1  0  0  0
 36 27  1  0  0  0
 35 30  1  0  0  0
 24 25  1  0  0  0
M  END
> <minimizedAffinity>
-7.76033

> <CNNscore>
0.2081767172

> <CNNaffinity>
6.1335005760

> <CNN_VS>
1.2768520117

> <CNNaffinity_variance>
0.0687326565

$$$$
[H]c1nc([H])c(C(=O)N([H])C([H])([H])c2c([H])c([H])c3c([H])c([H])c([H])c([H])c3c2[H])c(N2C([H])([H])C([H])([H])C([H])(N(c3c([H])c([H])c(C([H])([H])[H])c([H])c3[H])C([H])([H])[H])C([H])([H])C2([H])[H])c1[H]


 36 40  0  0  0  0  0  0  0  0999 V2000
   58.2609   -5.1242  -10.2012 C   0  0  0  0  0  0  0  0  0  0  0  0
   58.4229   -4.8414  -11.5826 C   0  0  0  0  0  0  0  0  0  0  0  0
   57.4728   -4.1311  -12.2715 C   0  0  0  0  0  0  0  0  0  0  0  0
   56.3534   -3.6878  -11.6065 N   0  0  0  0  0  0  0  0  0  0  0  0
   56.1381   -3.9212  -10.2936 C   0  0  0  0  0  0  0  0  0  0  0  0
   57.1205   -4.6370   -9.6642 C   0  0  0  0  0  0  0  0  0  0  0  0
   61.3096   -7.8067   -9.0046 C   0  0  0  0  0  0  0  0  0  0  0  0
   61.4770   -6.3629   -8.5858 C   0  0  0  0  0  0  0  0  0  0  0  0
   60.1780   -5.6152   -8.5669 C   0  0  0  0  0  0  0  0  0  0  0  0
   59.2186   -5.9293   -9.5632 N   0  0  0  0  0  0  0  0  0  0  0  0
   59.1695   -7.3564   -9.9822 C   0  0  0  0  0  0  0  0  0  0  0  0
   60.5868   -7.8046  -10.3161 C   0  0  0  0  0  0  0  0  0  0  0  0
   62.5838   -8.4475   -9.1004 N   0  0  0  0  0  0  0  0  0  0  0  0
   63.6819   -8.0000   -8.2285 C   0  0  0  0  0  0  0  0  0  0  0  0
   63.6104  -12.6637  -12.8267 C   0  0  0  0  0  0  0  0  0  0  0  0
   63.3327  -11.5845  -11.8183 C   0  0  0  0  0  0  0  0  0  0  0  0
   63.8748  -10.3368  -12.0542 C   0  0  0  0  0  0  0  0  0  0  0  0
   63.6144   -9.3051  -11.1213 C   0  0  0  0  0  0  0  0  0  0  0  0
   62.8494   -9.4887  -10.0088 C   0  0  0  0  0  0  0  0  0  0  0  0
   62.3480  -10.7574   -9.8509 C   0  0  0  0  0  0  0  0  0  0  0  0
   62.5577  -11.8166  -10.7113 C   0  0  0  0  0  0  0  0  0  0  0  0
   56.9897   -4.8773   -8.1769 C   0  0  0  0  0  0  0  0  0  0  0  0
   57.9242   -4.3706   -7.5132 O   0  0  0  0  0  0  0  0  0  0  0  0
   55.9523   -5.5621   -7.7159 N   0  0  0  0  0  0  0  0  0  0  0  0
   56.4371   -5.5111   -6.4239 H   0  0  0  0  0  0  0  0  0  0  0  0
   54.8484   -6.2945   -7.1914 C   0  0  0  0  0  0  0  0  0  0  0  0
   53.6434   -5.3854   -7.1770 C   0  0  0  0  0  0  0  0  0  0  0  0
   53.5598   -4.3876   -8.1385 C   0  0  0  0  0  0  0  0  0  0  0  0
   52.5449   -3.4844   -8.1904 C   0  0  0  0  0  0  0  0  0  0  0  0
   51.5428   -3.5438   -7.2520 C   0  0  0  0  0  0  0  0  0  0  0  0
   50.4956   -2.6113   -7.2803 C   0  0  0  0  0  0  0  0  0  0  0  0
   49.4879   -2.6465   -6.3442 C   0  0  0  0  0  0  0  0  0  0  0  0
   49.5179   -3.6253   -5.3647 C   0  0  0  0  0  0  0  0  0  0  0  0
   50.5755   -4.5447   -5.3584 C   0  0  0  0  0  0  0  0  0  0  0  0
   51.5755   -4.5091   -6.2793 C   0  0  0  0  0  0  0  0  0  0  0  0
   52.6371   -5.4378   -6.2455 C   0  0  0  0  0  0  0  0  0  0  0  0
 15 16  1  0  0  0
 16 17  2  0  0  0
 17 18  1  0  0  0
 18 19  2  0  0  0
 19 20  1  0  0  0
 20 21  2  0  0  0
 19 13  1  0  0  0
 13 14  1  0  0  0
 13  7  1  0  0  0
  7  8  1  0  0  0
  8  9  1  0  0  0
  9 10  1  0  0  0
 10 11  1  0  0  0
 11 12  1  0  0  0
 10  1  1  0  0  0
  1  2  2  0  0  0
  2  3  1  0  0  0
  3  4  2  0  0  0
  4  5  1  0  0  0
  5  6  2  0  0  0
  6 22  1  0  0  0
 22 23  2  0  0  0
 22 24  1  0  0  0
 24 26  1  0  0  0
 26 27  1  0  0  0
 27 28  2  0  0  0
 28 29  1  0  0  0
 29 30  2  0  0  0
 30 31  1  0  0  0
 31 32  2  0  0  0
 32 33  1  0  0  0
 33 34  2  0  0  0
 34 35  1  0  0  0
 35 36  2  0  0  0
 21 16  1  0  0  0
 12  7  1  0  0  0
  6  1  1  0  0  0
 36 27  1  0  0  0
 35 30  1  0  0  0
 24 25  1  0  0  0
M  END
> <minimizedAffinity>
-8.03717

> <CNNscore>
0.2009187490

> <CNNaffinity>
5.9588074684

> <CNN_VS>
1.1972361803

> <CNNaffinity_variance>
0.0534938686

$$$$
[H]c1nc([H])c(C(=O)N([H])C([H])([H])c2c([H])c([H])c3c([H])c([H])c([H])c([H])c3c2[H])c(N2C([H])([H])C([H])([H])C([H])(N(c3c([H])c([H])c(C([H])([H])[H])c([H])c3[H])C([H])([H])[H])C([H])([H])C2([H])[H])c1[H]


 36 40  0  0  0  0  0  0  0  0999 V2000
   57.9033   -5.0642  -10.0568 C   0  0  0  0  0  0  0  0  0  0  0  0
   57.9948   -4.7774  -11.4438 C   0  0  0  0  0  0  0  0  0  0  0  0
   56.9773   -4.1291  -12.0968 C   0  0  0  0  0  0  0  0  0  0  0  0
   55.8591   -3.7525  -11.3900 N   0  0  0  0  0  0  0  0  0  0  0  0
   55.7090   -3.9935  -10.0694 C   0  0  0  0  0  0  0  0  0  0  0  0
   56.7567   -4.6456   -9.4771 C   0  0  0  0  0  0  0  0  0  0  0  0
   61.2007   -7.4916   -8.9809 C   0  0  0  0  0  0  0  0  0  0  0  0
   61.2121   -6.0692   -8.4664 C   0  0  0  0  0  0  0  0  0  0  0  0
   59.8422   -5.4623   -8.4230 C   0  0  0  0  0  0  0  0  0  0  0  0
   58.9323   -5.8069   -9.4549 N   0  0  0  0  0  0  0  0  0  0  0  0
   59.0368   -7.2005   -9.9663 C   0  0  0  0  0  0  0  0  0  0  0  0
   60.4968   -7.4771  -10.3026 C   0  0  0  0  0  0  0  0  0  0  0  0
   62.5356   -7.9898   -9.0946 N   0  0  0  0  0  0  0  0  0  0  0  0
   63.1582   -8.6516   -7.9366 C   0  0  0  0  0  0  0  0  0  0  0  0
   65.6956   -7.5109  -13.8382 C   0  0  0  0  0  0  0  0  0  0  0  0
   64.8667   -7.5952  -12.5874 C   0  0  0  0  0  0  0  0  0  0  0  0
   64.0835   -8.7193  -12.4163 C   0  0  0  0  0  0  0  0  0  0  0  0
   63.3049   -8.8215  -11.2390 C   0  0  0  0  0  0  0  0  0  0  0  0
   63.3008   -7.8648  -10.2688 C   0  0  0  0  0  0  0  0  0  0  0  0
   64.1079   -6.7817  -10.5169 C   0  0  0  0  0  0  0  0  0  0  0  0
   64.8934   -6.6057  -11.6386 C   0  0  0  0  0  0  0  0  0  0  0  0
   56.6978   -4.8876   -7.9855 C   0  0  0  0  0  0  0  0  0  0  0  0
   57.5521   -4.2298   -7.3468 O   0  0  0  0  0  0  0  0  0  0  0  0
   55.7945   -5.7257   -7.4962 N   0  0  0  0  0  0  0  0  0  0  0  0
   56.2920   -5.5832   -6.2159 H   0  0  0  0  0  0  0  0  0  0  0  0
   54.8346   -6.6207   -6.9415 C   0  0  0  0  0  0  0  0  0  0  0  0
   53.5951   -5.8300   -6.5993 C   0  0  0  0  0  0  0  0  0  0  0  0
   52.8473   -6.2221   -5.4973 C   0  0  0  0  0  0  0  0  0  0  0  0
   51.6901   -5.6129   -5.1258 C   0  0  0  0  0  0  0  0  0  0  0  0
   51.2187   -4.5554   -5.8660 C   0  0  0  0  0  0  0  0  0  0  0  0
   50.0188   -3.9242   -5.5071 C   0  0  0  0  0  0  0  0  0  0  0  0
   49.5238   -2.8705   -6.2404 C   0  0  0  0  0  0  0  0  0  0  0  0
   50.2325   -2.4337   -7.3472 C   0  0  0  0  0  0  0  0  0  0  0  0
   51.4283   -3.0818   -7.6847 C   0  0  0  0  0  0  0  0  0  0  0  0
   51.9173   -4.1267   -6.9647 C   0  0  0  0  0  0  0  0  0  0  0  0
   53.1173   -4.7720   -7.3310 C   0  0  0  0  0  0  0  0  0  0  0  0
 15 16  1  0  0  0
 16 17  2  0  0  0
 17 18  1  0  0  0
 18 19  2  0  0  0
 19 20  1  0  0  0
 20 21  2  0  0  0
 19 13  1  0  0  0
 13 14  1  0  0  0
 13  7  1  0  0  0
  7  8  1  0  0  0
  8  9  1  0  0  0
  9 10  1  0  0  0
 10 11  1  0  0  0
 11 12  1  0  0  0
 10  1  1  0  0  0
  1  2  2  0  0  0
  2  3  1  0  0  0
  3  4  2  0  0  0
  4  5  1  0  0  0
  5  6  2  0  0  0
  6 22  1  0  0  0
 22 23  2  0  0  0
 22 24  1  0  0  0
 24 26  1  0  0  0
 26 27  1  0  0  0
 27 28  2  0  0  0
 28 29  1  0  0  0
 29 30  2  0  0  0
 30 31  1  0  0  0
 31 32  2  0  0  0
 32 33  1  0  0  0
 33 34  2  0  0  0
 34 35  1  0  0  0
 35 36  2  0  0  0
 21 16  1  0  0  0
 12  7  1  0  0  0
  6  1  1  0  0  0
 36 27  1  0  0  0
 35 30  1  0  0  0
 24 25  1  0  0  0
M  END
> <minimizedAffinity>
-7.30115

> <CNNscore>
0.1993453950

> <CNNaffinity>
6.1700997353

> <CNN_VS>
1.2299809456

> <CNNaffinity_variance>
0.0471451953

$$$$
[H]c1nc([H])c(C(=O)N([H])C([H])([H])c2c([H])c([H])c3c([H])c([H])c([H])c([H])c3c2[H])c(N2C([H])([H])C([H])([H])C([H])(N(c3c([H])c([H])c(C([H])([H])[H])c([H])c3[H])C([H])([H])[H])C([H])([H])C2([H])[H])c1[H]


 36 40  0  0  0  0  0  0  0  0999 V2000
   56.1985   -4.7345   -8.7295 C   0  0  0  0  0  0  0  0  0  0  0  0
   57.1222   -5.2562   -7.7866 C   0  0  0  0  0  0  0  0  0  0  0  0
   56.6884   -5.8070   -6.6075 C   0  0  0  0  0  0  0  0  0  0  0  0
   55.3391   -5.8535   -6.3450 N   0  0  0  0  0  0  0  0  0  0  0  0
   54.4077   -5.3763   -7.1989 C   0  0  0  0  0  0  0  0  0  0  0  0
   54.9042   -4.8373   -8.3551 C   0  0  0  0  0  0  0  0  0  0  0  0
   57.8507   -3.5619  -12.4468 C   0  0  0  0  0  0  0  0  0  0  0  0
   56.4553   -3.0648  -12.1404 C   0  0  0  0  0  0  0  0  0  0  0  0
   56.1573   -3.0568  -10.6714 C   0  0  0  0  0  0  0  0  0  0  0  0
   56.6976   -4.1026   -9.8803 N   0  0  0  0  0  0  0  0  0  0  0  0
   58.0399   -4.5947  -10.2937 C   0  0  0  0  0  0  0  0  0  0  0  0
   57.9981   -4.8977  -11.7862 C   0  0  0  0  0  0  0  0  0  0  0  0
   58.0506   -3.6423  -13.8599 N   0  0  0  0  0  0  0  0  0  0  0  0
   56.9035   -3.9373  -14.7336 C   0  0  0  0  0  0  0  0  0  0  0  0
   63.1677   -2.9898  -16.3307 C   0  0  0  0  0  0  0  0  0  0  0  0
   61.8401   -3.1503  -15.6449 C   0  0  0  0  0  0  0  0  0  0  0  0
   60.7051   -3.0742  -16.4274 C   0  0  0  0  0  0  0  0  0  0  0  0
   59.4465   -3.2345  -15.8008 C   0  0  0  0  0  0  0  0  0  0  0  0
   59.3086   -3.4660  -14.4651 C   0  0  0  0  0  0  0  0  0  0  0  0
   60.4862   -3.5287  -13.7613 C   0  0  0  0  0  0  0  0  0  0  0  0
   61.7503   -3.3803  -14.2962 C   0  0  0  0  0  0  0  0  0  0  0  0
   53.9224   -4.3477   -9.3959 C   0  0  0  0  0  0  0  0  0  0  0  0
   54.0634   -4.9095  -10.5072 O   0  0  0  0  0  0  0  0  0  0  0  0
   53.0351   -3.4185   -9.0689 N   0  0  0  0  0  0  0  0  0  0  0  0
   52.5581   -3.3564  -10.3633 H   0  0  0  0  0  0  0  0  0  0  0  0
   52.0702   -2.4208   -8.7467 C   0  0  0  0  0  0  0  0  0  0  0  0
   51.2740   -2.9013   -7.5577 C   0  0  0  0  0  0  0  0  0  0  0  0
   50.0976   -2.2358   -7.2404 C   0  0  0  0  0  0  0  0  0  0  0  0
   49.3276   -2.5526   -6.1656 C   0  0  0  0  0  0  0  0  0  0  0  0
   49.7167   -3.5783   -5.3381 C   0  0  0  0  0  0  0  0  0  0  0  0
   48.9434   -3.9096   -4.2160 C   0  0  0  0  0  0  0  0  0  0  0  0
   49.3201   -4.9261   -3.3689 C   0  0  0  0  0  0  0  0  0  0  0  0
   50.4827   -5.6280   -3.6409 C   0  0  0  0  0  0  0  0  0  0  0  0
   51.2377   -5.2768   -4.7681 C   0  0  0  0  0  0  0  0  0  0  0  0
   50.8703   -4.2693   -5.6043 C   0  0  0  0  0  0  0  0  0  0  0  0
   51.6532   -3.9252   -6.7265 C   0  0  0  0  0  0  0  0  0  0  0  0
 15 16  1  0  0  0
 16 17  2  0  0  0
 17 18  1  0  0  0
 18 19  2  0  0  0
 19 20  1  0  0  0
 20 21  2  0  0  0
 19 13  1  0  0  0
 13 14  1  0  0  0
 13  7  1  0  0  0
  7  8  1  0  0  0
  8  9  1  0  0  0
  9 10  1  0  0  0
 10 11  1  0  0  0
 11 12  1  0  0  0
 10  1  1  0  0  0
  1  2  2  0  0  0
  2  3  1  0  0  0
  3  4  2  0  0  0
  4  5  1  0  0  0
  5  6  2  0  0  0
  6 22  1  0  0  0
 22 23  2  0  0  0
 22 24  1  0  0  0
 24 26  1  0  0  0
 26 27  1  0  0  0
 27 28  2  0  0  0
 28 29  1  0  0  0
 29 30  2  0  0  0
 30 31  1  0  0  0
 31 32  2  0  0  0
 32 33  1  0  0  0
 33 34  2  0  0  0
 34 35  1  0  0  0
 35 36  2  0  0  0
 21 16  1  0  0  0
 12  7  1  0  0  0
  6  1  1  0  0  0
 36 27  1  0  0  0
 35 30  1  0  0  0
 24 25  1  0  0  0
M  END
> <minimizedAffinity>
-8.44605

> <CNNscore>
0.1928528696

> <CNNaffinity>
6.5702347755

> <CNN_VS>
1.2670886517

> <CNNaffinity_variance>
0.0413048603

$$$$
[H]OC([H])([H])[C@@]1([H])C([H])([H])OC(=O)N([C@@]2([H])C([H])([H])[C@@]3([H])ON(c4c([H])c([H])c(N([H])[H])c([H])c4[H])C([H])([H])[C@@]23[H])C1([H])[H]


 26 29  0  0  0  0  0  0  0  0999 V2000
   59.3632   -3.3279  -13.9578 N   0  0  0  0  0  0  0  0  0  0  0  0
   60.4215   -3.2680  -14.9618 C   0  0  0  0  0  0  0  0  0  0  0  0
   61.5747   -3.6970  -14.1229 C   0  0  0  0  0  0  0  0  0  0  0  0
   62.8413   -2.9681  -14.0587 C   0  0  0  0  0  0  0  0  0  0  0  0
   62.0708   -1.7966  -13.4577 C   0  0  0  0  0  0  0  0  0  0  0  0
   61.1895   -2.8949  -12.8270 C   0  0  0  0  0  0  0  0  0  0  0  0
   59.8512   -2.6488  -12.9162 O   0  0  0  0  0  0  0  0  0  0  0  0
   54.3445   -5.8231  -14.4319 N   0  0  0  0  0  0  0  0  0  0  0  0
   55.6223   -5.1838  -14.3381 C   0  0  0  0  0  0  0  0  0  0  0  0
   56.2619   -4.6989  -15.4430 C   0  0  0  0  0  0  0  0  0  0  0  0
   57.4864   -4.0947  -15.2943 C   0  0  0  0  0  0  0  0  0  0  0  0
   58.1161   -3.9509  -14.0520 C   0  0  0  0  0  0  0  0  0  0  0  0
   57.4184   -4.4615  -12.9763 C   0  0  0  0  0  0  0  0  0  0  0  0
   56.1780   -5.0772  -13.1010 C   0  0  0  0  0  0  0  0  0  0  0  0
   53.4884   -5.3266  -14.7135 H   0  0  0  0  0  0  0  0  0  0  0  0
   54.2898   -6.8340  -14.2030 H   0  0  0  0  0  0  0  0  0  0  0  0
   63.7433   -2.7493  -15.0944 N   0  0  0  0  0  0  0  0  0  0  0  0
   63.4812   -1.6341  -16.0387 C   0  0  0  0  0  0  0  0  0  0  0  0
   64.0677   -1.9650  -17.3606 C   0  0  0  0  0  0  0  0  0  0  0  0
   64.2149   -3.4395  -17.6515 C   0  0  0  0  0  0  0  0  0  0  0  0
   65.0642   -4.0625  -16.6704 O   0  0  0  0  0  0  0  0  0  0  0  0
   64.8973   -3.5060  -15.3753 C   0  0  0  0  0  0  0  0  0  0  0  0
   65.7534   -3.6690  -14.4709 O   0  0  0  0  0  0  0  0  0  0  0  0
   65.4213   -1.2846  -17.4993 C   0  0  0  0  0  0  0  0  0  0  0  0
   65.2969    0.1038  -17.2819 O   0  0  0  0  0  0  0  0  0  0  0  0
   65.9768    0.5992  -17.8092 H   0  0  0  0  0  0  0  0  0  0  0  0
  8  9  1  0  0  0
  9 10  2  0  0  0
 10 11  1  0  0  0
 11 12  2  0  0  0
 12 13  1  0  0  0
 13 14  2  0  0  0
 12  1  1  0  0  0
  1  2  1  0  0  0
  2  3  1  0  0  0
  3  4  1  0  0  0
  4  5  1  0  0  0
  5  6  1  0  0  0
  6  7  1  0  0  0
  4 17  1  0  0  0
 17 18  1  0  0  0
 18 19  1  0  0  0
 19 24  1  0  0  0
 24 25  1  0  0  0
 19 20  1  0  0  0
 20 21  1  0  0  0
 21 22  1  0  0  0
 22 23  2  0  0  0
 14  9  1  0  0  0
  7  1  1  0  0  0
  6  3  1  0  0  0
 22 17  1  0  0  0
  8 15  1  0  0  0
  8 16  1  0  0  0
 25 26  1  0  0  0
M  END
> <minimizedAffinity>
3.36338

> <CNNscore>
0.5438132286

> <CNNaffinity>
4.1136364937

> <CNN_VS>
2.2370500565

> <CNNaffinity_variance>
0.4855338633

$$$$
[H]OC([H])([H])[C@@]1([H])C([H])([H])OC(=O)N([C@@]2([H])C([H])([H])[C@@]3([H])ON(c4c([H])c([H])c(N([H])[H])c([H])c4[H])C([H])([H])[C@@]23[H])C1([H])[H]


 26 29  0  0  0  0  0  0  0  0999 V2000
   63.6685   -8.3657  -11.8831 N   0  0  0  0  0  0  0  0  0  0  0  0
   63.5614   -9.0172  -10.5809 C   0  0  0  0  0  0  0  0  0  0  0  0
   62.1832   -8.5914  -10.2106 C   0  0  0  0  0  0  0  0  0  0  0  0
   61.8440   -7.9866   -8.9226 C   0  0  0  0  0  0  0  0  0  0  0  0
   62.7480   -6.8167   -9.2986 C   0  0  0  0  0  0  0  0  0  0  0  0
   62.2808   -7.1140  -10.7388 C   0  0  0  0  0  0  0  0  0  0  0  0
   63.2870   -7.1053  -11.6591 O   0  0  0  0  0  0  0  0  0  0  0  0
   65.3089  -10.5214  -16.8126 N   0  0  0  0  0  0  0  0  0  0  0  0
   64.8896   -9.9481  -15.5693 C   0  0  0  0  0  0  0  0  0  0  0  0
   64.6146   -8.6155  -15.4532 C   0  0  0  0  0  0  0  0  0  0  0  0
   64.2162   -8.1194  -14.2359 C   0  0  0  0  0  0  0  0  0  0  0  0
   64.0770   -8.9227  -13.0976 C   0  0  0  0  0  0  0  0  0  0  0  0
   64.3697  -10.2588  -13.2812 C   0  0  0  0  0  0  0  0  0  0  0  0
   64.7748  -10.7848  -14.5029 C   0  0  0  0  0  0  0  0  0  0  0  0
   64.7001  -10.5715  -17.6406 H   0  0  0  0  0  0  0  0  0  0  0  0
   66.2730  -10.9013  -16.8710 H   0  0  0  0  0  0  0  0  0  0  0  0
   61.9464   -8.5681   -7.6634 N   0  0  0  0  0  0  0  0  0  0  0  0
   62.1699   -7.6850   -6.4911 C   0  0  0  0  0  0  0  0  0  0  0  0
   62.9113   -8.4357   -5.4481 C   0  0  0  0  0  0  0  0  0  0  0  0
   63.7646   -9.5739   -5.9546 C   0  0  0  0  0  0  0  0  0  0  0  0
   62.9523  -10.5428   -6.6428 O   0  0  0  0  0  0  0  0  0  0  0  0
   61.8891   -9.9438   -7.3677 C   0  0  0  0  0  0  0  0  0  0  0  0
   60.8953  -10.6083   -7.7527 O   0  0  0  0  0  0  0  0  0  0  0  0
   61.9321   -8.9612   -4.4092 C   0  0  0  0  0  0  0  0  0  0  0  0
   62.4432  -10.1254   -3.7980 O   0  0  0  0  0  0  0  0  0  0  0  0
   61.7019  -10.7239   -3.5188 H   0  0  0  0  0  0  0  0  0  0  0  0
  8  9  1  0  0  0
  9 10  2  0  0  0
 10 11  1  0  0  0
 11 12  2  0  0  0
 12 13  1  0  0  0
 13 14  2  0  0  0
 12  1  1  0  0  0
  1  2  1  0  0  0
  2  3  1  0  0  0
  3  4  1  0  0  0
  4  5  1  0  0  0
  5  6  1  0  0  0
  6  7  1  0  0  0
  4 17  1  0  0  0
 17 18  1  0  0  0
 18 19  1  0  0  0
 19 24  1  0  0  0
 24 25  1  0  0  0
 19 20  1  0  0  0
 20 21  1  0  0  0
 21 22  1  0  0  0
 22 23  2  0  0  0
 14  9  1  0  0  0
  7  1  1  0  0  0
  6  3  1  0  0  0
 22 17  1  0  0  0
  8 15  1  0  0  0
  8 16  1  0  0  0
 25 26  1  0  0  0
M  END
> <minimizedAffinity>
-2.49508

> <CNNscore>
0.5179020762

> <CNNaffinity>
3.7513775826

> <CNN_VS>
1.9428462982

> <CNNaffinity_variance>
0.0861305371

$$$$
[H]OC([H])([H])[C@@]1([H])C([H])([H])OC(=O)N([C@@]2([H])C([H])([H])[C@@]3([H])ON(c4c([H])c([H])c(N([H])[H])c([H])c4[H])C([H])([H])[C@@]23[H])C1([H])[H]


 26 29  0  0  0  0  0  0  0  0999 V2000
   62.8486   -7.5267  -10.9825 N   0  0  0  0  0  0  0  0  0  0  0  0
   63.3133   -7.8955   -9.6484 C   0  0  0  0  0  0  0  0  0  0  0  0
   62.0180   -8.3247   -9.0518 C   0  0  0  0  0  0  0  0  0  0  0  0
   61.5270   -7.8466   -7.7595 C   0  0  0  0  0  0  0  0  0  0  0  0
   61.4699   -6.4469   -8.3634 C   0  0  0  0  0  0  0  0  0  0  0  0
   61.1254   -7.1888   -9.6717 C   0  0  0  0  0  0  0  0  0  0  0  0
   61.8008   -6.7278  -10.7629 O   0  0  0  0  0  0  0  0  0  0  0  0
   64.9870   -9.1683  -15.9191 N   0  0  0  0  0  0  0  0  0  0  0  0
   64.4513   -8.7737  -14.6512 C   0  0  0  0  0  0  0  0  0  0  0  0
   64.5534   -9.5761  -13.5509 C   0  0  0  0  0  0  0  0  0  0  0  0
   64.0211   -9.1468  -12.3597 C   0  0  0  0  0  0  0  0  0  0  0  0
   63.3727   -7.9140  -12.2184 C   0  0  0  0  0  0  0  0  0  0  0  0
   63.3028   -7.1511  -13.3663 C   0  0  0  0  0  0  0  0  0  0  0  0
   63.8337   -7.5634  -14.5836 C   0  0  0  0  0  0  0  0  0  0  0  0
   65.9951   -9.2815  -16.0911 H   0  0  0  0  0  0  0  0  0  0  0  0
   64.3195   -9.3458  -16.6937 H   0  0  0  0  0  0  0  0  0  0  0  0
   62.1072   -8.0423   -6.5107 N   0  0  0  0  0  0  0  0  0  0  0  0
   61.8582   -9.3255   -5.8068 C   0  0  0  0  0  0  0  0  0  0  0  0
   61.9280   -9.1009   -4.3420 C   0  0  0  0  0  0  0  0  0  0  0  0
   61.6177   -7.6945   -3.8883 C   0  0  0  0  0  0  0  0  0  0  0  0
   62.5401   -6.7610   -4.4800 O   0  0  0  0  0  0  0  0  0  0  0  0
   62.9050   -7.1224   -5.8032 C   0  0  0  0  0  0  0  0  0  0  0  0
   63.9232   -6.6441   -6.3616 O   0  0  0  0  0  0  0  0  0  0  0  0
   63.3032   -9.5050   -3.8322 C   0  0  0  0  0  0  0  0  0  0  0  0
   63.1828  -10.2928   -2.6681 O   0  0  0  0  0  0  0  0  0  0  0  0
   63.9702  -10.1612   -2.0778 H   0  0  0  0  0  0  0  0  0  0  0  0
  8  9  1  0  0  0
  9 10  2  0  0  0
 10 11  1  0  0  0
 11 12  2  0  0  0
 12 13  1  0  0  0
 13 14  2  0  0  0
 12  1  1  0  0  0
  1  2  1  0  0  0
  2  3  1  0  0  0
  3  4  1  0  0  0
  4  5  1  0  0  0
  5  6  1  0  0  0
  6  7  1  0  0  0
  4 17  1  0  0  0
 17 18  1  0  0  0
 18 19  1  0  0  0
 19 24  1  0  0  0
 24 25  1  0  0  0
 19 20  1  0  0  0
 20 21  1  0  0  0
 21 22  1  0  0  0
 22 23  2  0  0  0
 14  9  1  0  0  0
  7  1  1  0  0  0
  6  3  1  0  0  0
 22 17  1  0  0  0
  8 15  1  0  0  0
  8 16  1  0  0  0
 25 26  1  0  0  0
M  END
> <minimizedAffinity>
-3.22805

> <CNNscore>
0.4620623887

> <CNNaffinity>
3.7670493126

> <CNN_VS>
1.7406117916

> <CNNaffinity_variance>
0.2255361825

$$$$
[H]OC([H])([H])[C@@]1([H])C([H])([H])OC(=O)N([C@@]2([H])C([H])([H])[C@@]3([H])ON(c4c([H])c([H])c(N([H])[H])c([H])c4[H])C([H])([H])[C@@]23[H])C1([H])[H]


 26 29  0  0  0  0  0  0  0  0999 V2000
   53.3166   -5.4561   -7.4154 N   0  0  0  0  0  0  0  0  0  0  0  0
   52.4845   -4.6678   -6.5110 C   0  0  0  0  0  0  0  0  0  0  0  0
   51.8005   -5.7744   -5.7862 C   0  0  0  0  0  0  0  0  0  0  0  0
   50.3511   -5.8430   -5.6007 C   0  0  0  0  0  0  0  0  0  0  0  0
   50.2198   -5.9532   -7.1166 C   0  0  0  0  0  0  0  0  0  0  0  0
   51.5617   -6.7096   -7.0270 C   0  0  0  0  0  0  0  0  0  0  0  0
   52.4731   -6.3318   -7.9684 O   0  0  0  0  0  0  0  0  0  0  0  0
   58.8142   -4.9139   -8.4743 N   0  0  0  0  0  0  0  0  0  0  0  0
   57.4091   -5.0395   -8.2283 C   0  0  0  0  0  0  0  0  0  0  0  0
   56.4833   -4.5651   -9.1129 C   0  0  0  0  0  0  0  0  0  0  0  0
   55.1483   -4.7128   -8.8258 C   0  0  0  0  0  0  0  0  0  0  0  0
   54.6870   -5.3326   -7.6580 C   0  0  0  0  0  0  0  0  0  0  0  0
   55.6720   -5.7897   -6.8063 C   0  0  0  0  0  0  0  0  0  0  0  0
   57.0294   -5.6521   -7.0745 C   0  0  0  0  0  0  0  0  0  0  0  0
   59.2945   -5.4007   -9.2431 H   0  0  0  0  0  0  0  0  0  0  0  0
   59.3645   -4.3016   -7.8423 H   0  0  0  0  0  0  0  0  0  0  0  0
   49.5468   -4.9540   -4.8957 N   0  0  0  0  0  0  0  0  0  0  0  0
   48.4520   -4.2611   -5.6204 C   0  0  0  0  0  0  0  0  0  0  0  0
   48.1954   -2.9483   -4.9788 C   0  0  0  0  0  0  0  0  0  0  0  0
   49.3671   -2.3521   -4.2357 C   0  0  0  0  0  0  0  0  0  0  0  0
   49.7953   -3.2348   -3.1823 O   0  0  0  0  0  0  0  0  0  0  0  0
   49.6743   -4.6037   -3.5376 C   0  0  0  0  0  0  0  0  0  0  0  0
   49.6764   -5.5136   -2.6718 O   0  0  0  0  0  0  0  0  0  0  0  0
   47.0071   -3.0683   -4.0364 C   0  0  0  0  0  0  0  0  0  0  0  0
   47.0987   -4.2557   -3.2803 O   0  0  0  0  0  0  0  0  0  0  0  0
   46.1926   -4.5927   -3.0537 H   0  0  0  0  0  0  0  0  0  0  0  0
  8  9  1  0  0  0
  9 10  2  0  0  0
 10 11  1  0  0  0
 11 12  2  0  0  0
 12 13  1  0  0  0
 13 14  2  0  0  0
 12  1  1  0  0  0
  1  2  1  0  0  0
  2  3  1  0  0  0
  3  4  1  0  0  0
  4  5  1  0  0  0
  5  6  1  0  0  0
  6  7  1  0  0  0
  4 17  1  0  0  0
 17 18  1  0  0  0
 18 19  1  0  0  0
 19 24  1  0  0  0
 24 25  1  0  0  0
 19 20  1  0  0  0
 20 21  1  0  0  0
 21 22  1  0  0  0
 22 23  2  0  0  0
 14  9  1  0  0  0
  7  1  1  0  0  0
  6  3  1  0  0  0
 22 17  1  0  0  0
  8 15  1  0  0  0
  8 16  1  0  0  0
 25 26  1  0  0  0
M  END
> <minimizedAffinity>
-3.70410

> <CNNscore>
0.3894261718

> <CNNaffinity>
5.8276610374

> <CNN_VS>
2.2694437504

> <CNNaffinity_variance>
0.3753819466

$$$$
[H]OC([H])([H])[C@@]1([H])C([H])([H])OC(=O)N([C@@]2([H])C([H])([H])[C@@]3([H])ON(c4c([H])c([H])c(N([H])[H])c([H])c4[H])C([H])([H])[C@@]23[H])C1([H])[H]


 26 29  0  0  0  0  0  0  0  0999 V2000
   55.8290   -4.1634   -8.8822 N   0  0  0  0  0  0  0  0  0  0  0  0
   54.9618   -4.4368   -7.7399 C   0  0  0  0  0  0  0  0  0  0  0  0
   53.6944   -4.7316   -8.4641 C   0  0  0  0  0  0  0  0  0  0  0  0
   52.4124   -4.1096   -8.1332 C   0  0  0  0  0  0  0  0  0  0  0  0
   53.0258   -2.7696   -8.5273 C   0  0  0  0  0  0  0  0  0  0  0  0
   53.8191   -3.6052   -9.5536 C   0  0  0  0  0  0  0  0  0  0  0  0
   55.1433   -3.2865   -9.6206 O   0  0  0  0  0  0  0  0  0  0  0  0
   60.9048   -6.2760  -10.0700 N   0  0  0  0  0  0  0  0  0  0  0  0
   59.6084   -5.7342   -9.7942 C   0  0  0  0  0  0  0  0  0  0  0  0
   58.7907   -5.2922  -10.7947 C   0  0  0  0  0  0  0  0  0  0  0  0
   57.5570   -4.7817  -10.4723 C   0  0  0  0  0  0  0  0  0  0  0  0
   57.0934   -4.6921   -9.1541 C   0  0  0  0  0  0  0  0  0  0  0  0
   57.9664   -5.1550   -8.1908 C   0  0  0  0  0  0  0  0  0  0  0  0
   59.2200   -5.6760   -8.4918 C   0  0  0  0  0  0  0  0  0  0  0  0
   61.0469   -7.1580  -10.5803 H   0  0  0  0  0  0  0  0  0  0  0  0
   61.7328   -5.7471   -9.7354 H   0  0  0  0  0  0  0  0  0  0  0  0
   51.6992   -4.2255   -6.9449 N   0  0  0  0  0  0  0  0  0  0  0  0
   52.2303   -5.1177   -5.8837 C   0  0  0  0  0  0  0  0  0  0  0  0
   51.1018   -5.6417   -5.0757 C   0  0  0  0  0  0  0  0  0  0  0  0
   49.7708   -5.7010   -5.7865 C   0  0  0  0  0  0  0  0  0  0  0  0
   49.3747   -4.3871   -6.2213 O   0  0  0  0  0  0  0  0  0  0  0  0
   50.4783   -3.5959   -6.6347 C   0  0  0  0  0  0  0  0  0  0  0  0
   50.3961   -2.3463   -6.7306 O   0  0  0  0  0  0  0  0  0  0  0  0
   50.9607   -4.8154   -3.8062 C   0  0  0  0  0  0  0  0  0  0  0  0
   50.2247   -5.5281   -2.8363 O   0  0  0  0  0  0  0  0  0  0  0  0
   49.7235   -4.9010   -2.2521 H   0  0  0  0  0  0  0  0  0  0  0  0
  8  9  1  0  0  0
  9 10  2  0  0  0
 10 11  1  0  0  0
 11 12  2  0  0  0
 12 13  1  0  0  0
 13 14  2  0  0  0
 12  1  1  0  0  0
  1  2  1  0  0  0
  2  3  1  0  0  0
  3  4  1  0  0  0
  4  5  1  0  0  0
  5  6  1  0  0  0
  6  7  1  0  0  0
  4 17  1  0  0  0
 17 18  1  0  0  0
 18 19  1  0  0  0
 19 24  1  0  0  0
 24 25  1  0  0  0
 19 20  1  0  0  0
 20 21  1  0  0  0
 21 22  1  0  0  0
 22 23  2  0  0  0
 14  9  1  0  0  0
  7  1  1  0  0  0
  6  3  1  0  0  0
 22 17  1  0  0  0
  8 15  1  0  0  0
  8 16  1  0  0  0
 25 26  1  0  0  0
M  END
> <minimizedAffinity>
-7.35250

> <CNNscore>
0.3846455812

> <CNNaffinity>
5.6844754219

> <CNN_VS>
2.1865084171

> <CNNaffinity_variance>
0.1014818549

$$$$
[H]OC([H])([H])[C@@]1([H])C([H])([H])OC(=O)N([C@@]2([H])C([H])([H])[C@@]3([H])ON(c4c([H])c([H])c(N([H])[H])c([H])c4[H])C([H])([H])[C@@]23[H])C1([H])[H]


 26 29  0  0  0  0  0  0  0  0999 V2000
   57.1173   -4.7584   -9.0482 N   0  0  0  0  0  0  0  0  0  0  0  0
   56.9540   -5.2180  -10.4243 C   0  0  0  0  0  0  0  0  0  0  0  0
   57.7962   -4.2050  -11.1186 C   0  0  0  0  0  0  0  0  0  0  0  0
   57.3443   -3.4388  -12.2799 C   0  0  0  0  0  0  0  0  0  0  0  0
   56.2804   -2.8146  -11.3822 C   0  0  0  0  0  0  0  0  0  0  0  0
   57.3457   -2.9573  -10.2751 C   0  0  0  0  0  0  0  0  0  0  0  0
   56.8593   -3.4488   -9.0999 O   0  0  0  0  0  0  0  0  0  0  0  0
   58.5977   -7.7982   -4.5530 N   0  0  0  0  0  0  0  0  0  0  0  0
   58.2445   -7.0307   -5.7091 C   0  0  0  0  0  0  0  0  0  0  0  0
   59.0861   -6.9212   -6.7790 C   0  0  0  0  0  0  0  0  0  0  0  0
   58.6957   -6.1717   -7.8618 C   0  0  0  0  0  0  0  0  0  0  0  0
   57.4641   -5.5083   -7.9214 C   0  0  0  0  0  0  0  0  0  0  0  0
   56.6606   -5.6585   -6.8096 C   0  0  0  0  0  0  0  0  0  0  0  0
   57.0332   -6.4116   -5.7016 C   0  0  0  0  0  0  0  0  0  0  0  0
   58.7116   -8.8205   -4.5721 H   0  0  0  0  0  0  0  0  0  0  0  0
   58.7429   -7.2904   -3.6595 H   0  0  0  0  0  0  0  0  0  0  0  0
   56.9955   -3.9311  -13.5329 N   0  0  0  0  0  0  0  0  0  0  0  0
   55.9481   -4.9801  -13.6158 C   0  0  0  0  0  0  0  0  0  0  0  0
   56.1960   -5.8250  -14.8098 C   0  0  0  0  0  0  0  0  0  0  0  0
   57.6309   -5.8783  -15.2773 C   0  0  0  0  0  0  0  0  0  0  0  0
   58.0976   -4.5596  -15.6170 O   0  0  0  0  0  0  0  0  0  0  0  0
   57.5600   -3.5573  -14.7678 C   0  0  0  0  0  0  0  0  0  0  0  0
   57.5726   -2.3431  -15.0887 O   0  0  0  0  0  0  0  0  0  0  0  0
   55.3084   -5.3584  -15.9540 C   0  0  0  0  0  0  0  0  0  0  0  0
   55.1011   -3.9651  -15.8771 O   0  0  0  0  0  0  0  0  0  0  0  0
   54.2146   -3.7255  -16.2547 H   0  0  0  0  0  0  0  0  0  0  0  0
  8  9  1  0  0  0
  9 10  2  0  0  0
 10 11  1  0  0  0
 11 12  2  0  0  0
 12 13  1  0  0  0
 13 14  2  0  0  0
 12  1  1  0  0  0
  1  2  1  0  0  0
  2  3  1  0  0  0
  3  4  1  0  0  0
  4  5  1  0  0  0
  5  6  1  0  0  0
  6  7  1  0  0  0
  4 17  1  0  0  0
 17 18  1  0  0  0
 18 19  1  0  0  0
 19 24  1  0  0  0
 24 25  1  0  0  0
 19 20  1  0  0  0
 20 21  1  0  0  0
 21 22  1  0  0  0
 22 23  2  0  0  0
 14  9  1  0  0  0
  7  1  1  0  0  0
  6  3  1  0  0  0
 22 17  1  0  0  0
  8 15  1  0  0  0
  8 16  1  0  0  0
 25 26  1  0  0  0
M  END
> <minimizedAffinity>
15.05857

> <CNNscore>
0.3332690597

> <CNNaffinity>
4.3439435959

> <CNN_VS>
1.4477020502

> <CNNaffinity_variance>
0.3264907897

$$$$
[H]OC([H])([H])[C@@]1([H])C([H])([H])OC(=O)N([C@@]2([H])C([H])([H])[C@@]3([H])ON(c4c([H])c([H])c(N([H])[H])c([H])c4[H])C([H])([H])[C@@]23[H])C1([H])[H]


 26 29  0  0  0  0  0  0  0  0999 V2000
   55.0323   -4.5352   -8.5484 N   0  0  0  0  0  0  0  0  0  0  0  0
   55.1213   -4.8323   -7.1218 C   0  0  0  0  0  0  0  0  0  0  0  0
   54.0583   -5.8708   -7.0248 C   0  0  0  0  0  0  0  0  0  0  0  0
   52.9892   -5.8406   -6.0268 C   0  0  0  0  0  0  0  0  0  0  0  0
   52.5012   -4.5473   -6.6722 C   0  0  0  0  0  0  0  0  0  0  0  0
   53.0172   -5.1822   -7.9804 C   0  0  0  0  0  0  0  0  0  0  0  0
   53.7310   -4.3264   -8.7663 O   0  0  0  0  0  0  0  0  0  0  0  0
   59.2492   -4.3620  -12.2667 N   0  0  0  0  0  0  0  0  0  0  0  0
   58.1909   -4.4219  -11.3041 C   0  0  0  0  0  0  0  0  0  0  0  0
   58.3188   -5.1314  -10.1442 C   0  0  0  0  0  0  0  0  0  0  0  0
   57.2711   -5.1541   -9.2564 C   0  0  0  0  0  0  0  0  0  0  0  0
   56.0667   -4.4780   -9.4860 C   0  0  0  0  0  0  0  0  0  0  0  0
   56.0011   -3.7805  -10.6750 C   0  0  0  0  0  0  0  0  0  0  0  0
   57.0476   -3.7422  -11.5897 C   0  0  0  0  0  0  0  0  0  0  0  0
   60.1507   -3.9022  -12.0811 H   0  0  0  0  0  0  0  0  0  0  0  0
   59.0896   -4.8056  -13.1914 H   0  0  0  0  0  0  0  0  0  0  0  0
   53.1214   -5.9214   -4.6447 N   0  0  0  0  0  0  0  0  0  0  0  0
   54.4822   -5.8386   -4.0569 C   0  0  0  0  0  0  0  0  0  0  0  0
   54.5114   -6.5987   -2.7832 C   0  0  0  0  0  0  0  0  0  0  0  0
   53.4955   -7.7102   -2.6704 C   0  0  0  0  0  0  0  0  0  0  0  0
   52.1609   -7.1848   -2.7915 O   0  0  0  0  0  0  0  0  0  0  0  0
   52.0825   -6.1073   -3.7123 C   0  0  0  0  0  0  0  0  0  0  0  0
   51.1103   -5.3122   -3.7176 O   0  0  0  0  0  0  0  0  0  0  0  0
   54.3419   -5.6382   -1.6157 C   0  0  0  0  0  0  0  0  0  0  0  0
   55.2407   -4.5574   -1.7353 O   0  0  0  0  0  0  0  0  0  0  0  0
   55.4956   -4.2181   -0.8377 H   0  0  0  0  0  0  0  0  0  0  0  0
  8  9  1  0  0  0
  9 10  2  0  0  0
 10 11  1  0  0  0
 11 12  2  0  0  0
 12 13  1  0  0  0
 13 14  2  0  0  0
 12  1  1  0  0  0
  1  2  1  0  0  0
  2  3  1  0  0  0
  3  4  1  0  0  0
  4  5  1  0  0  0
  5  6  1  0  0  0
  6  7  1  0  0  0
  4 17  1  0  0  0
 17 18  1  0  0  0
 18 19  1  0  0  0
 19 24  1  0  0  0
 24 25  1  0  0  0
 19 20  1  0  0  0
 20 21  1  0  0  0
 21 22  1  0  0  0
 22 23  2  0  0  0
 14  9  1  0  0  0
  7  1  1  0  0  0
  6  3  1  0  0  0
 22 17  1  0  0  0
  8 15  1  0  0  0
  8 16  1  0  0  0
 25 26  1  0  0  0
M  END
> <minimizedAffinity>
-7.96996

> <CNNscore>
0.3244957328

> <CNNaffinity>
5.4470043182

> <CNN_VS>
1.7675296068

> <CNNaffinity_variance>
0.1656334102

$$$$
[H]OC([H])([H])[C@@]1([H])C([H])([H])OC(=O)N([C@@]2([H])C([H])([H])[C@@]3([H])ON(c4c([H])c([H])c(N([H])[H])c([H])c4[H])C([H])([H])[C@@]23[H])C1([H])[H]


 26 29  0  0  0  0  0  0  0  0999 V2000
   54.4857   -4.6764   -8.1956 N   0  0  0  0  0  0  0  0  0  0  0  0
   54.5233   -4.7639   -6.7386 C   0  0  0  0  0  0  0  0  0  0  0  0
   53.5758   -5.8955   -6.5402 C   0  0  0  0  0  0  0  0  0  0  0  0
   52.4535   -5.8535   -5.6029 C   0  0  0  0  0  0  0  0  0  0  0  0
   51.8661   -4.7257   -6.4457 C   0  0  0  0  0  0  0  0  0  0  0  0
   52.5234   -5.4691   -7.6273 C   0  0  0  0  0  0  0  0  0  0  0  0
   53.1843   -4.6516   -8.4958 O   0  0  0  0  0  0  0  0  0  0  0  0
   58.7547   -4.4450  -11.8506 N   0  0  0  0  0  0  0  0  0  0  0  0
   57.6514   -4.4938  -10.9392 C   0  0  0  0  0  0  0  0  0  0  0  0
   56.4024   -4.0810  -11.3060 C   0  0  0  0  0  0  0  0  0  0  0  0
   55.3807   -4.1500  -10.3906 C   0  0  0  0  0  0  0  0  0  0  0  0
   55.5605   -4.6282   -9.0870 C   0  0  0  0  0  0  0  0  0  0  0  0
   56.8446   -5.0293   -8.7794 C   0  0  0  0  0  0  0  0  0  0  0  0
   57.8953   -4.9692   -9.6882 C   0  0  0  0  0  0  0  0  0  0  0  0
   58.8080   -5.0259  -12.6982 H   0  0  0  0  0  0  0  0  0  0  0  0
   59.5315   -3.7905  -11.6374 H   0  0  0  0  0  0  0  0  0  0  0  0
   52.5131   -5.7292   -4.2190 N   0  0  0  0  0  0  0  0  0  0  0  0
   53.8468   -5.6657   -3.5699 C   0  0  0  0  0  0  0  0  0  0  0  0
   53.7489   -6.2187   -2.1968 C   0  0  0  0  0  0  0  0  0  0  0  0
   52.6344   -7.2141   -1.9789 C   0  0  0  0  0  0  0  0  0  0  0  0
   51.3586   -6.6084   -2.2576 O   0  0  0  0  0  0  0  0  0  0  0  0
   51.4192   -5.6842   -3.3332 C   0  0  0  0  0  0  0  0  0  0  0  0
   50.5225   -4.8241   -3.5164 O   0  0  0  0  0  0  0  0  0  0  0  0
   53.6104   -5.0781   -1.1997 C   0  0  0  0  0  0  0  0  0  0  0  0
   52.8170   -5.4782   -0.1039 O   0  0  0  0  0  0  0  0  0  0  0  0
   52.3286   -4.7000    0.2725 H   0  0  0  0  0  0  0  0  0  0  0  0
  8  9  1  0  0  0
  9 10  2  0  0  0
 10 11  1  0  0  0
 11 12  2  0  0  0
 12 13  1  0  0  0
 13 14  2  0  0  0
 12  1  1  0  0  0
  1  2  1  0  0  0
  2  3  1  0  0  0
  3  4  1  0  0  0
  4  5  1  0  0  0
  5  6  1  0  0  0
  6  7  1  0  0  0
  4 17  1  0  0  0
 17 18  1  0  0  0
 18 19  1  0  0  0
 19 24  1  0  0  0
 24 25  1  0  0  0
 19 20  1  0  0  0
 20 21  1  0  0  0
 21 22  1  0  0  0
 22 23  2  0  0  0
 14  9  1  0  0  0
  7  1  1  0  0  0
  6  3  1  0  0  0
 22 17  1  0  0  0
  8 15  1  0  0  0
  8 16  1  0  0  0
 25 26  1  0  0  0
M  END
> <minimizedAffinity>
-8.34997

> <CNNscore>
0.3219234049

> <CNNaffinity>
5.7050490379

> <CNN_VS>
1.8365888596

> <CNNaffinity_variance>
0.1866044402

$$$$
[H]OC([H])([H])[C@@]1([H])C([H])([H])OC(=O)N([C@@]2([H])C([H])([H])[C@@]3([H])ON(c4c([H])c([H])c(N([H])[H])c([H])c4[H])C([H])([H])[C@@]23[H])C1([H])[H]


 26 29  0  0  0  0  0  0  0  0999 V2000
   56.8346   -4.5500  -10.4407 N   0  0  0  0  0  0  0  0  0  0  0  0
   55.4759   -4.6405   -9.9140 C   0  0  0  0  0  0  0  0  0  0  0  0
   55.6511   -3.8588   -8.6587 C   0  0  0  0  0  0  0  0  0  0  0  0
   55.2211   -4.3357   -7.3443 C   0  0  0  0  0  0  0  0  0  0  0  0
   56.2337   -5.4677   -7.4872 C   0  0  0  0  0  0  0  0  0  0  0  0
   57.0637   -4.4252   -8.2650 C   0  0  0  0  0  0  0  0  0  0  0  0
   57.6150   -4.9049   -9.4163 O   0  0  0  0  0  0  0  0  0  0  0  0
   58.5630   -3.0558  -15.5806 N   0  0  0  0  0  0  0  0  0  0  0  0
   58.1489   -3.4364  -14.2638 C   0  0  0  0  0  0  0  0  0  0  0  0
   59.0532   -3.6404  -13.2610 C   0  0  0  0  0  0  0  0  0  0  0  0
   58.5996   -4.0045  -12.0167 C   0  0  0  0  0  0  0  0  0  0  0  0
   57.2413   -4.1782  -11.7247 C   0  0  0  0  0  0  0  0  0  0  0  0
   56.3799   -3.9572  -12.7800 C   0  0  0  0  0  0  0  0  0  0  0  0
   56.8143   -3.5881  -14.0482 C   0  0  0  0  0  0  0  0  0  0  0  0
   59.0042   -2.1501  -15.7897 H   0  0  0  0  0  0  0  0  0  0  0  0
   58.4064   -3.7315  -16.3527 H   0  0  0  0  0  0  0  0  0  0  0  0
   53.9228   -4.6120   -6.9293 N   0  0  0  0  0  0  0  0  0  0  0  0
   53.7284   -5.3760   -5.6713 C   0  0  0  0  0  0  0  0  0  0  0  0
   52.4580   -6.1377   -5.7536 C   0  0  0  0  0  0  0  0  0  0  0  0
   51.9980   -6.4784   -7.1509 C   0  0  0  0  0  0  0  0  0  0  0  0
   51.7946   -5.2782   -7.9191 O   0  0  0  0  0  0  0  0  0  0  0  0
   52.7354   -4.2639   -7.6018 C   0  0  0  0  0  0  0  0  0  0  0  0
   52.5371   -3.0610   -7.9037 O   0  0  0  0  0  0  0  0  0  0  0  0
   51.3596   -5.3710   -5.0324 C   0  0  0  0  0  0  0  0  0  0  0  0
   50.1115   -5.6094   -5.6452 O   0  0  0  0  0  0  0  0  0  0  0  0
   49.5188   -4.8194   -5.5427 H   0  0  0  0  0  0  0  0  0  0  0  0
  8  9  1  0  0  0
  9 10  2  0  0  0
 10 11  1  0  0  0
 11 12  2  0  0  0
 12 13  1  0  0  0
 13 14  2  0  0  0
 12  1  1  0  0  0
  1  2  1  0  0  0
  2  3  1  0  0  0
  3  4  1  0  0  0
  4  5  1  0  0  0
  5  6  1  0  0  0
  6  7  1  0  0  0
  4 17  1  0  0  0
 17 18  1  0  0  0
 18 19  1  0  0  0
 19 24  1  0  0  0
 24 25  1  0  0  0
 19 20  1  0  0  0
 20 21  1  0  0  0
 21 22  1  0  0  0
 22 23  2  0  0  0
 14  9  1  0  0  0
  7  1  1  0  0  0
  6  3  1  0  0  0
 22 17  1  0  0  0
  8 15  1  0  0  0
  8 16  1  0  0  0
 25 26  1  0  0  0
M  END
> <minimizedAffinity>
-6.91620

> <CNNscore>
0.3189772964

> <CNNaffinity>
5.2105736732

> <CNN_VS>
1.6620546579

> <CNNaffinity_variance>
0.0249226484

$$$$
[H]c1nc(OS(=O)(=O)C([H])([H])[H])c([H])c([H])c1N([H])c1nc([H])c(C([H])([H])N2C([H])([H])C([H])([H])C([H])(c3c([H])c([H])c(F)c([H])c3F)C2([H])[H])c([H])c1[H]


 33 36  0  0  0  0  0  0  0  0999 V2000
   59.3088   -5.5137   -9.3045 C   0  0  0  0  0  0  0  0  0  0  0  0
   59.0013   -5.3006  -10.6255 C   0  0  0  0  0  0  0  0  0  0  0  0
   57.7312   -4.8594  -10.9721 C   0  0  0  0  0  0  0  0  0  0  0  0
   56.7864   -4.6343  -10.0154 C   0  0  0  0  0  0  0  0  0  0  0  0
   57.1403   -4.8606   -8.7243 N   0  0  0  0  0  0  0  0  0  0  0  0
   58.3437   -5.2820   -8.3631 C   0  0  0  0  0  0  0  0  0  0  0  0
   55.5018   -4.1623  -10.2531 N   0  0  0  0  0  0  0  0  0  0  0  0
   55.2676   -3.8343  -11.2493 H   0  0  0  0  0  0  0  0  0  0  0  0
   54.4779   -4.0700   -9.3140 C   0  0  0  0  0  0  0  0  0  0  0  0
   53.4679   -3.1661   -9.3707 C   0  0  0  0  0  0  0  0  0  0  0  0
   52.4626   -3.1566   -8.3970 C   0  0  0  0  0  0  0  0  0  0  0  0
   52.5153   -4.0782   -7.3799 C   0  0  0  0  0  0  0  0  0  0  0  0
   53.5198   -4.9684   -7.3318 N   0  0  0  0  0  0  0  0  0  0  0  0
   54.4747   -4.9814   -8.2533 C   0  0  0  0  0  0  0  0  0  0  0  0
   51.4948   -4.0365   -6.4287 O   0  0  0  0  0  0  0  0  0  0  0  0
   51.0228   -5.5340   -5.7630 S   0  0  0  0  0  0  0  0  0  0  0  0
   50.6005   -6.6357   -7.0957 C   0  0  0  0  0  0  0  0  0  0  0  0
   52.1929   -6.0660   -5.0003 O   0  0  0  0  0  0  0  0  0  0  0  0
   49.8632   -5.3636   -4.8319 O   0  0  0  0  0  0  0  0  0  0  0  0
   60.6727   -6.0001   -8.9328 C   0  0  0  0  0  0  0  0  0  0  0  0
   62.3205   -8.3866   -9.7662 C   0  0  0  0  0  0  0  0  0  0  0  0
   62.6073   -8.6662   -8.3381 C   0  0  0  0  0  0  0  0  0  0  0  0
   61.5575   -7.8032   -7.6252 C   0  0  0  0  0  0  0  0  0  0  0  0
   60.6058   -7.3954   -8.6435 N   0  0  0  0  0  0  0  0  0  0  0  0
   60.8239   -8.2384   -9.7779 C   0  0  0  0  0  0  0  0  0  0  0  0
   61.8139  -11.2038   -9.6669 F   0  0  0  0  0  0  0  0  0  0  0  0
   62.5913  -10.7088  -10.6457 C   0  0  0  0  0  0  0  0  0  0  0  0
   63.1028  -11.6256  -11.5588 C   0  0  0  0  0  0  0  0  0  0  0  0
   63.8999  -11.1881  -12.5775 C   0  0  0  0  0  0  0  0  0  0  0  0
   64.4469  -12.0142  -13.5209 F   0  0  0  0  0  0  0  0  0  0  0  0
   64.1829   -9.8490  -12.6823 C   0  0  0  0  0  0  0  0  0  0  0  0
   63.6687   -8.9629  -11.7720 C   0  0  0  0  0  0  0  0  0  0  0  0
   62.8498   -9.3618  -10.7147 C   0  0  0  0  0  0  0  0  0  0  0  0
 26 27  1  0  0  0
 27 28  2  0  0  0
 28 29  1  0  0  0
 29 30  1  0  0  0
 29 31  2  0  0  0
 31 32  1  0  0  0
 32 33  2  0  0  0
 33 21  1  0  0  0
 21 22  1  0  0  0
 22 23  1  0  0  0
 23 24  1  0  0  0
 24 20  1  0  0  0
 20  1  1  0  0  0
  1  2  2  0  0  0
  2  3  1  0  0  0
  3  4  2  0  0  0
  4  7  1  0  0  0
  7  9  1  0  0  0
  9 10  2  0  0  0
 10 11  1  0  0  0
 11 12  2  0  0  0
 12 15  1  0  0  0
 15 16  1  0  0  0
 16 17  1  0  0  0
 16 18  2  0  0  0
 16 19  2  0  0  0
 12 13  1  0  0  0
 13 14  2  0  0  0
  4  5  1  0  0  0
  5  6  2  0  0  0
 24 25  1  0  0  0
 33 27  1  0  0  0
 25 21  1  0  0  0
  6  1  1  0  0  0
 14  9  1  0  0  0
  7  8  1  0  0  0
M  END
> <minimizedAffinity>
-6.99477

> <CNNscore>
0.2592485845

> <CNNaffinity>
5.9894189835

> <CNN_VS>
1.5527484417

> <CNNaffinity_variance>
0.1095328778

$$$$
[H]c1nc(OS(=O)(=O)C([H])([H])[H])c([H])c([H])c1N([H])c1nc([H])c(C([H])([H])N2C([H])([H])C([H])([H])C([H])(c3c([H])c([H])c(F)c([H])c3F)C2([H])[H])c([H])c1[H]


 33 36  0  0  0  0  0  0  0  0999 V2000
   58.9426   -5.8278   -9.5644 C   0  0  0  0  0  0  0  0  0  0  0  0
   58.4956   -5.4224  -10.7976 C   0  0  0  0  0  0  0  0  0  0  0  0
   57.3995   -4.5747  -10.8858 C   0  0  0  0  0  0  0  0  0  0  0  0
   56.7629   -4.1393   -9.7616 C   0  0  0  0  0  0  0  0  0  0  0  0
   57.2436   -4.5693   -8.5668 N   0  0  0  0  0  0  0  0  0  0  0  0
   58.2867   -5.3785   -8.4512 C   0  0  0  0  0  0  0  0  0  0  0  0
   55.6825   -3.2665   -9.7396 N   0  0  0  0  0  0  0  0  0  0  0  0
   55.7379   -2.3891  -10.3575 H   0  0  0  0  0  0  0  0  0  0  0  0
   54.5232   -3.4196   -8.9838 C   0  0  0  0  0  0  0  0  0  0  0  0
   53.4097   -2.6586   -9.1295 C   0  0  0  0  0  0  0  0  0  0  0  0
   52.2756   -2.8945   -8.3440 C   0  0  0  0  0  0  0  0  0  0  0  0
   52.3080   -3.9106   -7.4203 C   0  0  0  0  0  0  0  0  0  0  0  0
   53.4154   -4.6580   -7.2828 N   0  0  0  0  0  0  0  0  0  0  0  0
   54.4927   -4.4380   -8.0258 C   0  0  0  0  0  0  0  0  0  0  0  0
   51.1577   -4.1144   -6.6566 O   0  0  0  0  0  0  0  0  0  0  0  0
   50.9830   -5.6584   -5.9536 S   0  0  0  0  0  0  0  0  0  0  0  0
   50.6473   -6.8329   -7.2482 C   0  0  0  0  0  0  0  0  0  0  0  0
   52.2762   -5.9845   -5.2789 O   0  0  0  0  0  0  0  0  0  0  0  0
   49.8825   -5.6625   -4.9391 O   0  0  0  0  0  0  0  0  0  0  0  0
   60.1155   -6.7501   -9.4703 C   0  0  0  0  0  0  0  0  0  0  0  0
   62.2360   -8.1553   -7.8475 C   0  0  0  0  0  0  0  0  0  0  0  0
   63.1949   -7.0801   -8.2001 C   0  0  0  0  0  0  0  0  0  0  0  0
   62.2643   -5.9837   -8.7360 C   0  0  0  0  0  0  0  0  0  0  0  0
   60.9175   -6.3698   -8.3535 N   0  0  0  0  0  0  0  0  0  0  0  0
   61.0439   -7.3834   -7.3528 C   0  0  0  0  0  0  0  0  0  0  0  0
   63.1451   -7.6279   -5.1832 F   0  0  0  0  0  0  0  0  0  0  0  0
   63.1703   -8.8884   -5.6499 C   0  0  0  0  0  0  0  0  0  0  0  0
   63.6474   -9.8650   -4.7812 C   0  0  0  0  0  0  0  0  0  0  0  0
   63.6992  -11.1657   -5.1935 C   0  0  0  0  0  0  0  0  0  0  0  0
   64.1521  -12.1921   -4.4104 F   0  0  0  0  0  0  0  0  0  0  0  0
   63.2789  -11.4869   -6.4601 C   0  0  0  0  0  0  0  0  0  0  0  0
   62.8124  -10.5093   -7.2997 C   0  0  0  0  0  0  0  0  0  0  0  0
   62.7404   -9.1672   -6.9240 C   0  0  0  0  0  0  0  0  0  0  0  0
 26 27  1  0  0  0
 27 28  2  0  0  0
 28 29  1  0  0  0
 29 30  1  0  0  0
 29 31  2  0  0  0
 31 32  1  0  0  0
 32 33  2  0  0  0
 33 21  1  0  0  0
 21 22  1  0  0  0
 22 23  1  0  0  0
 23 24  1  0  0  0
 24 20  1  0  0  0
 20  1  1  0  0  0
  1  2  2  0  0  0
  2  3  1  0  0  0
  3  4  2  0  0  0
  4  7  1  0  0  0
  7  9  1  0  0  0
  9 10  2  0  0  0
 10 11  1  0  0  0
 11 12  2  0  0  0
 12 15  1  0  0  0
 15 16  1  0  0  0
 16 17  1  0  0  0
 16 18  2  0  0  0
 16 19  2  0  0  0
 12 13  1  0  0  0
 13 14  2  0  0  0
  4  5  1  0  0  0
  5  6  2  0  0  0
 24 25  1  0  0  0
 33 27  1  0  0  0
 25 21  1  0  0  0
  6  1  1  0  0  0
 14  9  1  0  0  0
  7  8  1  0  0  0
M  END
> <minimizedAffinity>
-7.01968

> <CNNscore>
0.2569923997

> <CNNaffinity>
6.1228289604

> <CNN_VS>
1.5735205412

> <CNNaffinity_variance>
0.0538937971

$$$$
[H]c1nc(OS(=O)(=O)C([H])([H])[H])c([H])c([H])c1N([H])c1nc([H])c(C([H])([H])N2C([H])([H])C([H])([H])C([H])(c3c([H])c([H])c(F)c([H])c3F)C2([H])[H])c([H])c1[H]


 33 36  0  0  0  0  0  0  0  0999 V2000
   55.1398   -6.7177   -4.1218 C   0  0  0  0  0  0  0  0  0  0  0  0
   54.8848   -7.0678   -5.4246 C   0  0  0  0  0  0  0  0  0  0  0  0
   55.2433   -6.2035   -6.4505 C   0  0  0  0  0  0  0  0  0  0  0  0
   55.8468   -5.0117   -6.1787 C   0  0  0  0  0  0  0  0  0  0  0  0
   56.0764   -4.7122   -4.8745 N   0  0  0  0  0  0  0  0  0  0  0  0
   55.7452   -5.5162   -3.8744 C   0  0  0  0  0  0  0  0  0  0  0  0
   56.2738   -4.0942   -7.1303 N   0  0  0  0  0  0  0  0  0  0  0  0
   56.2844   -3.0562   -6.8522 H   0  0  0  0  0  0  0  0  0  0  0  0
   56.6915   -4.3930   -8.4244 C   0  0  0  0  0  0  0  0  0  0  0  0
   57.8858   -4.9589   -8.7307 C   0  0  0  0  0  0  0  0  0  0  0  0
   58.2187   -5.2494  -10.0587 C   0  0  0  0  0  0  0  0  0  0  0  0
   57.3157   -4.9509  -11.0497 C   0  0  0  0  0  0  0  0  0  0  0  0
   56.1363   -4.3899  -10.7365 N   0  0  0  0  0  0  0  0  0  0  0  0
   55.8162   -4.1132   -9.4787 C   0  0  0  0  0  0  0  0  0  0  0  0
   57.6845   -5.2558  -12.3608 O   0  0  0  0  0  0  0  0  0  0  0  0
   57.0772   -4.2229  -13.5744 S   0  0  0  0  0  0  0  0  0  0  0  0
   55.9905   -5.1638  -14.6241 C   0  0  0  0  0  0  0  0  0  0  0  0
   56.3202   -3.1325  -12.8874 O   0  0  0  0  0  0  0  0  0  0  0  0
   58.1921   -3.6223  -14.3725 O   0  0  0  0  0  0  0  0  0  0  0  0
   54.7429   -7.6433   -3.0169 C   0  0  0  0  0  0  0  0  0  0  0  0
   52.0179   -6.4239   -3.4559 C   0  0  0  0  0  0  0  0  0  0  0  0
   51.4616   -7.3387   -2.4295 C   0  0  0  0  0  0  0  0  0  0  0  0
   52.7304   -7.8472   -1.7316 C   0  0  0  0  0  0  0  0  0  0  0  0
   53.8102   -6.9788   -2.1664 N   0  0  0  0  0  0  0  0  0  0  0  0
   53.2044   -5.8239   -2.7530 C   0  0  0  0  0  0  0  0  0  0  0  0
   52.1435   -5.3562   -6.1106 F   0  0  0  0  0  0  0  0  0  0  0  0
   51.1578   -4.9590   -5.2871 C   0  0  0  0  0  0  0  0  0  0  0  0
   50.2509   -4.0369   -5.8004 C   0  0  0  0  0  0  0  0  0  0  0  0
   49.2257   -3.5924   -5.0156 C   0  0  0  0  0  0  0  0  0  0  0  0
   48.2877   -2.6884   -5.4334 F   0  0  0  0  0  0  0  0  0  0  0  0
   49.1083   -4.0641   -3.7319 C   0  0  0  0  0  0  0  0  0  0  0  0
   50.0126   -4.9721   -3.2462 C   0  0  0  0  0  0  0  0  0  0  0  0
   51.0761   -5.4557   -4.0095 C   0  0  0  0  0  0  0  0  0  0  0  0
 26 27  1  0  0  0
 27 28  2  0  0  0
 28 29  1  0  0  0
 29 30  1  0  0  0
 29 31  2  0  0  0
 31 32  1  0  0  0
 32 33  2  0  0  0
 33 21  1  0  0  0
 21 22  1  0  0  0
 22 23  1  0  0  0
 23 24  1  0  0  0
 24 20  1  0  0  0
 20  1  1  0  0  0
  1  2  2  0  0  0
  2  3  1  0  0  0
  3  4  2  0  0  0
  4  7  1  0  0  0
  7  9  1  0  0  0
  9 10  2  0  0  0
 10 11  1  0  0  0
 11 12  2  0  0  0
 12 15  1  0  0  0
 15 16  1  0  0  0
 16 17  1  0  0  0
 16 18  2  0  0  0
 16 19  2  0  0  0
 12 13  1  0  0  0
 13 14  2  0  0  0
  4  5  1  0  0  0
  5  6  2  0  0  0
 24 25  1  0  0  0
 33 27  1  0  0  0
 25 21  1  0  0  0
  6  1  1  0  0  0
 14  9  1  0  0  0
  7  8  1  0  0  0
M  END
> <minimizedAffinity>
-9.63268

> <CNNscore>
0.2554496527

> <CNNaffinity>
6.8005075455

> <CNN_VS>
1.7371872663

> <CNNaffinity_variance>
0.2597635686

$$$$
[H]c1nc(OS(=O)(=O)C([H])([H])[H])c([H])c([H])c1N([H])c1nc([H])c(C([H])([H])N2C([H])([H])C([H])([H])C([H])(c3c([H])c([H])c(F)c([H])c3F)C2([H])[H])c([H])c1[H]


 33 36  0  0  0  0  0  0  0  0999 V2000
   54.7656   -6.5854   -2.8465 C   0  0  0  0  0  0  0  0  0  0  0  0
   54.8114   -7.1135   -4.1130 C   0  0  0  0  0  0  0  0  0  0  0  0
   55.3740   -6.3744   -5.1450 C   0  0  0  0  0  0  0  0  0  0  0  0
   55.8826   -5.1307   -4.9147 C   0  0  0  0  0  0  0  0  0  0  0  0
   55.8124   -4.6537   -3.6454 N   0  0  0  0  0  0  0  0  0  0  0  0
   55.2812   -5.3352   -2.6407 C   0  0  0  0  0  0  0  0  0  0  0  0
   56.4945   -4.3261   -5.8673 N   0  0  0  0  0  0  0  0  0  0  0  0
   57.2226   -3.6137   -5.5247 H   0  0  0  0  0  0  0  0  0  0  0  0
   56.2511   -4.3523   -7.2380 C   0  0  0  0  0  0  0  0  0  0  0  0
   55.1547   -3.8158   -7.8300 C   0  0  0  0  0  0  0  0  0  0  0  0
   54.9981   -3.8639   -9.2200 C   0  0  0  0  0  0  0  0  0  0  0  0
   55.9738   -4.4651   -9.9772 C   0  0  0  0  0  0  0  0  0  0  0  0
   57.0551   -4.9942   -9.3817 N   0  0  0  0  0  0  0  0  0  0  0  0
   57.2079   -4.9503   -8.0642 C   0  0  0  0  0  0  0  0  0  0  0  0
   55.7812   -4.4928  -11.3593 O   0  0  0  0  0  0  0  0  0  0  0  0
   57.0920   -3.9649  -12.3140 S   0  0  0  0  0  0  0  0  0  0  0  0
   56.4906   -3.6107  -13.9514 C   0  0  0  0  0  0  0  0  0  0  0  0
   57.6289   -2.7234  -11.6781 O   0  0  0  0  0  0  0  0  0  0  0  0
   58.1709   -5.0014  -12.3610 O   0  0  0  0  0  0  0  0  0  0  0  0
   54.1490   -7.3767   -1.7380 C   0  0  0  0  0  0  0  0  0  0  0  0
   51.6418   -6.2219   -2.9566 C   0  0  0  0  0  0  0  0  0  0  0  0
   50.8306   -7.0532   -2.0343 C   0  0  0  0  0  0  0  0  0  0  0  0
   51.8729   -7.4909   -0.9964 C   0  0  0  0  0  0  0  0  0  0  0  0
   53.0388   -6.6521   -1.2114 N   0  0  0  0  0  0  0  0  0  0  0  0
   52.6174   -5.5552   -2.0263 C   0  0  0  0  0  0  0  0  0  0  0  0
   52.2370   -5.6847   -5.7062 F   0  0  0  0  0  0  0  0  0  0  0  0
   51.1903   -5.0710   -5.1271 C   0  0  0  0  0  0  0  0  0  0  0  0
   50.4575   -4.2004   -5.9278 C   0  0  0  0  0  0  0  0  0  0  0  0
   49.3820   -3.5448   -5.4007 C   0  0  0  0  0  0  0  0  0  0  0  0
   48.6035   -2.6718   -6.1102 F   0  0  0  0  0  0  0  0  0  0  0  0
   49.0426   -3.7569   -4.0877 C   0  0  0  0  0  0  0  0  0  0  0  0
   49.7780   -4.6187   -3.3166 C   0  0  0  0  0  0  0  0  0  0  0  0
   50.8846   -5.3112   -3.8101 C   0  0  0  0  0  0  0  0  0  0  0  0
 26 27  1  0  0  0
 27 28  2  0  0  0
 28 29  1  0  0  0
 29 30  1  0  0  0
 29 31  2  0  0  0
 31 32  1  0  0  0
 32 33  2  0  0  0
 33 21  1  0  0  0
 21 22  1  0  0  0
 22 23  1  0  0  0
 23 24  1  0  0  0
 24 20  1  0  0  0
 20  1  1  0  0  0
  1  2  2  0  0  0
  2  3  1  0  0  0
  3  4  2  0  0  0
  4  7  1  0  0  0
  7  9  1  0  0  0
  9 10  2  0  0  0
 10 11  1  0  0  0
 11 12  2  0  0  0
 12 15  1  0  0  0
 15 16  1  0  0  0
 16 17  1  0  0  0
 16 18  2  0  0  0
 16 19  2  0  0  0
 12 13  1  0  0  0
 13 14  2  0  0  0
  4  5  1  0  0  0
  5  6  2  0  0  0
 24 25  1  0  0  0
 33 27  1  0  0  0
 25 21  1  0  0  0
  6  1  1  0  0  0
 14  9  1  0  0  0
  7  8  1  0  0  0
M  END
> <minimizedAffinity>
-9.51601

> <CNNscore>
0.2518409491

> <CNNaffinity>
7.0419969559

> <CNN_VS>
1.7734632492

> <CNNaffinity_variance>
0.2063062638

$$$$
[H]c1nc(OS(=O)(=O)C([H])([H])[H])c([H])c([H])c1N([H])c1nc([H])c(C([H])([H])N2C([H])([H])C([H])([H])C([H])(c3c([H])c([H])c(F)c([H])c3F)C2([H])[H])c([H])c1[H]


 33 36  0  0  0  0  0  0  0  0999 V2000
   53.9193   -3.8796   -9.0998 C   0  0  0  0  0  0  0  0  0  0  0  0
   53.3368   -2.6487   -8.9256 C   0  0  0  0  0  0  0  0  0  0  0  0
   52.1506   -2.5456   -8.2113 C   0  0  0  0  0  0  0  0  0  0  0  0
   51.5585   -3.6527   -7.6798 C   0  0  0  0  0  0  0  0  0  0  0  0
   52.1742   -4.8460   -7.8807 N   0  0  0  0  0  0  0  0  0  0  0  0
   53.3058   -4.9757   -8.5582 C   0  0  0  0  0  0  0  0  0  0  0  0
   50.3937   -3.6534   -6.9232 N   0  0  0  0  0  0  0  0  0  0  0  0
   49.5241   -3.1847   -7.3464 H   0  0  0  0  0  0  0  0  0  0  0  0
   50.2432   -4.2069   -5.6545 C   0  0  0  0  0  0  0  0  0  0  0  0
   49.3682   -3.7543   -4.7219 C   0  0  0  0  0  0  0  0  0  0  0  0
   49.2623   -4.3844   -3.4766 C   0  0  0  0  0  0  0  0  0  0  0  0
   50.0610   -5.4702   -3.2124 C   0  0  0  0  0  0  0  0  0  0  0  0
   50.9248   -5.9103   -4.1418 N   0  0  0  0  0  0  0  0  0  0  0  0
   51.0281   -5.3163   -5.3240 C   0  0  0  0  0  0  0  0  0  0  0  0
   49.9258   -6.0709   -1.9598 O   0  0  0  0  0  0  0  0  0  0  0  0
   51.2300   -7.0414   -1.4443 S   0  0  0  0  0  0  0  0  0  0  0  0
   52.6130   -5.9813   -1.0816 C   0  0  0  0  0  0  0  0  0  0  0  0
   50.7861   -7.7568   -0.2094 O   0  0  0  0  0  0  0  0  0  0  0  0
   51.5958   -8.0459   -2.4920 O   0  0  0  0  0  0  0  0  0  0  0  0
   55.1902   -3.9917   -9.8791 C   0  0  0  0  0  0  0  0  0  0  0  0
   56.2523   -5.3399   -7.3973 C   0  0  0  0  0  0  0  0  0  0  0  0
   57.5516   -5.5422   -8.0834 C   0  0  0  0  0  0  0  0  0  0  0  0
   57.4325   -4.5917   -9.2824 C   0  0  0  0  0  0  0  0  0  0  0  0
   56.2923   -3.7343   -9.0107 N   0  0  0  0  0  0  0  0  0  0  0  0
   55.9868   -3.8766   -7.6210 C   0  0  0  0  0  0  0  0  0  0  0  0
   54.1173   -4.7576   -5.5791 F   0  0  0  0  0  0  0  0  0  0  0  0
   55.1699   -5.4755   -5.1502 C   0  0  0  0  0  0  0  0  0  0  0  0
   55.1409   -5.8917   -3.8228 C   0  0  0  0  0  0  0  0  0  0  0  0
   56.1795   -6.6246   -3.3241 C   0  0  0  0  0  0  0  0  0  0  0  0
   56.2382   -7.0768   -2.0343 F   0  0  0  0  0  0  0  0  0  0  0  0
   57.2356   -6.9380   -4.1430 C   0  0  0  0  0  0  0  0  0  0  0  0
   57.2441   -6.5180   -5.4475 C   0  0  0  0  0  0  0  0  0  0  0  0
   56.2065   -5.7675   -6.0022 C   0  0  0  0  0  0  0  0  0  0  0  0
 26 27  1  0  0  0
 27 28  2  0  0  0
 28 29  1  0  0  0
 29 30  1  0  0  0
 29 31  2  0  0  0
 31 32  1  0  0  0
 32 33  2  0  0  0
 33 21  1  0  0  0
 21 22  1  0  0  0
 22 23  1  0  0  0
 23 24  1  0  0  0
 24 20  1  0  0  0
 20  1  1  0  0  0
  1  2  2  0  0  0
  2  3  1  0  0  0
  3  4  2  0  0  0
  4  7  1  0  0  0
  7  9  1  0  0  0
  9 10  2  0  0  0
 10 11  1  0  0  0
 11 12  2  0  0  0
 12 15  1  0  0  0
 15 16  1  0  0  0
 16 17  1  0  0  0
 16 18  2  0  0  0
 16 19  2  0  0  0
 12 13  1  0  0  0
 13 14  2  0  0  0
  4  5  1  0  0  0
  5  6  2  0  0  0
 24 25  1  0  0  0
 33 27  1  0  0  0
 25 21  1  0  0  0
  6  1  1  0  0  0
 14  9  1  0  0  0
  7  8  1  0  0  0
M  END
> <minimizedAffinity>
-8.38260

> <CNNscore>
0.2496259063

> <CNNaffinity>
7.1849479675

> <CNN_VS>
1.7935491800

> <CNNaffinity_variance>
0.2352744341

$$$$
[H]c1nc(OS(=O)(=O)C([H])([H])[H])c([H])c([H])c1N([H])c1nc([H])c(C([H])([H])N2C([H])([H])C([H])([H])C([H])(c3c([H])c([H])c(F)c([H])c3F)C2([H])[H])c([H])c1[H]


 33 36  0  0  0  0  0  0  0  0999 V2000
   54.9550   -6.8162   -4.1988 C   0  0  0  0  0  0  0  0  0  0  0  0
   54.6128   -7.3181   -5.4301 C   0  0  0  0  0  0  0  0  0  0  0  0
   54.9314   -6.6018   -6.5760 C   0  0  0  0  0  0  0  0  0  0  0  0
   55.5812   -5.4062   -6.4925 C   0  0  0  0  0  0  0  0  0  0  0  0
   55.8967   -4.9535   -5.2519 N   0  0  0  0  0  0  0  0  0  0  0  0
   55.6055   -5.6143   -4.1407 C   0  0  0  0  0  0  0  0  0  0  0  0
   55.9738   -4.6301   -7.5755 N   0  0  0  0  0  0  0  0  0  0  0  0
   55.4151   -3.7341   -7.7753 H   0  0  0  0  0  0  0  0  0  0  0  0
   57.0317   -4.9055   -8.4379 C   0  0  0  0  0  0  0  0  0  0  0  0
   56.9768   -4.7606   -9.7856 C   0  0  0  0  0  0  0  0  0  0  0  0
   58.0958   -5.0367  -10.5797 C   0  0  0  0  0  0  0  0  0  0  0  0
   59.2530   -5.4588   -9.9717 C   0  0  0  0  0  0  0  0  0  0  0  0
   59.2971   -5.6000   -8.6369 N   0  0  0  0  0  0  0  0  0  0  0  0
   58.2388   -5.3388   -7.8801 C   0  0  0  0  0  0  0  0  0  0  0  0
   60.3465   -5.7238  -10.7976 O   0  0  0  0  0  0  0  0  0  0  0  0
   61.3650   -7.0029  -10.3127 S   0  0  0  0  0  0  0  0  0  0  0  0
   62.3923   -6.4305   -8.9767 C   0  0  0  0  0  0  0  0  0  0  0  0
   60.4833   -8.1173   -9.8492 O   0  0  0  0  0  0  0  0  0  0  0  0
   62.2043   -7.4809  -11.4562 O   0  0  0  0  0  0  0  0  0  0  0  0
   54.6013   -7.5822   -2.9646 C   0  0  0  0  0  0  0  0  0  0  0  0
   51.9082   -6.2886   -3.3870 C   0  0  0  0  0  0  0  0  0  0  0  0
   51.3792   -7.0504   -2.2296 C   0  0  0  0  0  0  0  0  0  0  0  0
   52.6667   -7.5372   -1.5508 C   0  0  0  0  0  0  0  0  0  0  0  0
   53.7528   -6.7790   -2.1462 N   0  0  0  0  0  0  0  0  0  0  0  0
   53.1608   -5.6708   -2.8292 C   0  0  0  0  0  0  0  0  0  0  0  0
   52.1000   -5.3014   -6.0688 F   0  0  0  0  0  0  0  0  0  0  0  0
   51.0889   -4.8872   -5.2855 C   0  0  0  0  0  0  0  0  0  0  0  0
   50.1901   -3.9885   -5.8517 C   0  0  0  0  0  0  0  0  0  0  0  0
   49.1403   -3.5284   -5.1096 C   0  0  0  0  0  0  0  0  0  0  0  0
   48.2079   -2.6451   -5.5808 F   0  0  0  0  0  0  0  0  0  0  0  0
   48.9905   -3.9616   -3.8158 C   0  0  0  0  0  0  0  0  0  0  0  0
   49.8874   -4.8471   -3.2775 C   0  0  0  0  0  0  0  0  0  0  0  0
   50.9752   -5.3452   -3.9960 C   0  0  0  0  0  0  0  0  0  0  0  0
 26 27  1  0  0  0
 27 28  2  0  0  0
 28 29  1  0  0  0
 29 30  1  0  0  0
 29 31  2  0  0  0
 31 32  1  0  0  0
 32 33  2  0  0  0
 33 21  1  0  0  0
 21 22  1  0  0  0
 22 23  1  0  0  0
 23 24  1  0  0  0
 24 20  1  0  0  0
 20  1  1  0  0  0
  1  2  2  0  0  0
  2  3  1  0  0  0
  3  4  2  0  0  0
  4  7  1  0  0  0
  7  9  1  0  0  0
  9 10  2  0  0  0
 10 11  1  0  0  0
 11 12  2  0  0  0
 12 15  1  0  0  0
 15 16  1  0  0  0
 16 17  1  0  0  0
 16 18  2  0  0  0
 16 19  2  0  0  0
 12 13  1  0  0  0
 13 14  2  0  0  0
  4  5  1  0  0  0
  5  6  2  0  0  0
 24 25  1  0  0  0
 33 27  1  0  0  0
 25 21  1  0  0  0
  6  1  1  0  0  0
 14  9  1  0  0  0
  7  8  1  0  0  0
M  END
> <minimizedAffinity>
-8.80610

> <CNNscore>
0.1697387546

> <CNNaffinity>
6.4217681885

> <CNN_VS>
1.0900229216

> <CNNaffinity_variance>
0.1715304554

$$$$
[H]c1nc(OS(=O)(=O)C([H])([H])[H])c([H])c([H])c1N([H])c1nc([H])c(C([H])([H])N2C([H])([H])C([H])([H])C([H])(c3c([H])c([H])c(F)c([H])c3F)C2([H])[H])c([H])c1[H]


 33 36  0  0  0  0  0  0  0  0999 V2000
   56.7505   -4.3764   -8.8478 C   0  0  0  0  0  0  0  0  0  0  0  0
   57.1140   -4.5400  -10.1616 C   0  0  0  0  0  0  0  0  0  0  0  0
   58.2615   -5.2574  -10.4721 C   0  0  0  0  0  0  0  0  0  0  0  0
   59.0307   -5.8022   -9.4872 C   0  0  0  0  0  0  0  0  0  0  0  0
   58.6283   -5.6115   -8.2046 N   0  0  0  0  0  0  0  0  0  0  0  0
   57.5389   -4.9315   -7.8775 C   0  0  0  0  0  0  0  0  0  0  0  0
   60.1747   -6.5629   -9.6922 N   0  0  0  0  0  0  0  0  0  0  0  0
   60.3239   -6.9855  -10.6689 H   0  0  0  0  0  0  0  0  0  0  0  0
   61.1562   -6.8355   -8.7430 C   0  0  0  0  0  0  0  0  0  0  0  0
   61.1655   -7.9338   -7.9468 C   0  0  0  0  0  0  0  0  0  0  0  0
   62.2047   -8.1449   -7.0333 C   0  0  0  0  0  0  0  0  0  0  0  0
   63.2170   -7.2198   -6.9546 C   0  0  0  0  0  0  0  0  0  0  0  0
   63.1984   -6.1352   -7.7464 N   0  0  0  0  0  0  0  0  0  0  0  0
   62.2153   -5.9314   -8.6143 C   0  0  0  0  0  0  0  0  0  0  0  0
   64.2347   -7.4660   -6.0318 O   0  0  0  0  0  0  0  0  0  0  0  0
   64.1635   -6.5797   -4.5764 S   0  0  0  0  0  0  0  0  0  0  0  0
   65.1476   -7.4209   -3.3550 C   0  0  0  0  0  0  0  0  0  0  0  0
   64.7299   -5.2252   -4.8568 O   0  0  0  0  0  0  0  0  0  0  0  0
   62.7495   -6.4357   -4.1068 O   0  0  0  0  0  0  0  0  0  0  0  0
   55.5213   -3.5939   -8.5134 C   0  0  0  0  0  0  0  0  0  0  0  0
   52.5940   -3.4313   -7.7994 C   0  0  0  0  0  0  0  0  0  0  0  0
   52.2690   -3.2743   -9.2380 C   0  0  0  0  0  0  0  0  0  0  0  0
   53.5782   -3.7072   -9.9117 C   0  0  0  0  0  0  0  0  0  0  0  0
   54.3717   -4.3540   -8.8816 N   0  0  0  0  0  0  0  0  0  0  0  0
   53.4880   -4.6407   -7.7945 C   0  0  0  0  0  0  0  0  0  0  0  0
   50.4990   -1.4841   -7.6492 F   0  0  0  0  0  0  0  0  0  0  0  0
   50.4528   -2.5639   -6.8496 C   0  0  0  0  0  0  0  0  0  0  0  0
   49.3632   -2.6557   -5.9891 C   0  0  0  0  0  0  0  0  0  0  0  0
   49.2562   -3.7279   -5.1504 C   0  0  0  0  0  0  0  0  0  0  0  0
   48.2224   -3.9031   -4.2716 F   0  0  0  0  0  0  0  0  0  0  0  0
   50.2274   -4.6976   -5.1714 C   0  0  0  0  0  0  0  0  0  0  0  0
   51.2924   -4.5876   -6.0269 C   0  0  0  0  0  0  0  0  0  0  0  0
   51.4453   -3.5114   -6.9021 C   0  0  0  0  0  0  0  0  0  0  0  0
 26 27  1  0  0  0
 27 28  2  0  0  0
 28 29  1  0  0  0
 29 30  1  0  0  0
 29 31  2  0  0  0
 31 32  1  0  0  0
 32 33  2  0  0  0
 33 21  1  0  0  0
 21 22  1  0  0  0
 22 23  1  0  0  0
 23 24  1  0  0  0
 24 20  1  0  0  0
 20  1  1  0  0  0
  1  2  2  0  0  0
  2  3  1  0  0  0
  3  4  2  0  0  0
  4  7  1  0  0  0
  7  9  1  0  0  0
  9 10  2  0  0  0
 10 11  1  0  0  0
 11 12  2  0  0  0
 12 15  1  0  0  0
 15 16  1  0  0  0
 16 17  1  0  0  0
 16 18  2  0  0  0
 16 19  2  0  0  0
 12 13  1  0  0  0
 13 14  2  0  0  0
  4  5  1  0  0  0
  5  6  2  0  0  0
 24 25  1  0  0  0
 33 27  1  0  0  0
 25 21  1  0  0  0
  6  1  1  0  0  0
 14  9  1  0  0  0
  7  8  1  0  0  0
M  END
> <minimizedAffinity>
-8.96496

> <CNNscore>
0.1684212834

> <CNNaffinity>
5.9302926064

> <CNN_VS>
0.9987874627

> <CNNaffinity_variance>
0.0987389237

$$$$
[H]c1nc(OS(=O)(=O)C([H])([H])[H])c([H])c([H])c1N([H])c1nc([H])c(C([H])([H])N2C([H])([H])C([H])([H])C([H])(c3c([H])c([H])c(F)c([H])c3F)C2([H])[H])c([H])c1[H]


 33 36  0  0  0  0  0  0  0  0999 V2000
   52.2893   -3.7337   -7.7242 C   0  0  0  0  0  0  0  0  0  0  0  0
   52.7268   -2.6766   -8.4831 C   0  0  0  0  0  0  0  0  0  0  0  0
   53.8260   -2.8379   -9.3159 C   0  0  0  0  0  0  0  0  0  0  0  0
   54.4751   -4.0345   -9.3894 C   0  0  0  0  0  0  0  0  0  0  0  0
   54.0035   -5.0479   -8.6186 N   0  0  0  0  0  0  0  0  0  0  0  0
   52.9576   -4.9239   -7.8143 C   0  0  0  0  0  0  0  0  0  0  0  0
   55.5597   -4.3087  -10.2127 N   0  0  0  0  0  0  0  0  0  0  0  0
   55.4213   -4.1989  -11.2727 H   0  0  0  0  0  0  0  0  0  0  0  0
   56.8222   -4.7188   -9.7922 C   0  0  0  0  0  0  0  0  0  0  0  0
   57.1704   -4.9129   -8.4956 C   0  0  0  0  0  0  0  0  0  0  0  0
   58.4566   -5.3503   -8.1593 C   0  0  0  0  0  0  0  0  0  0  0  0
   59.3636   -5.5795   -9.1651 C   0  0  0  0  0  0  0  0  0  0  0  0
   59.0096   -5.3836  -10.4458 N   0  0  0  0  0  0  0  0  0  0  0  0
   57.7910   -4.9695  -10.7692 C   0  0  0  0  0  0  0  0  0  0  0  0
   60.6353   -6.0148   -8.7893 O   0  0  0  0  0  0  0  0  0  0  0  0
   61.2168   -7.4122   -9.5753 S   0  0  0  0  0  0  0  0  0  0  0  0
   62.3567   -6.9109  -10.8471 C   0  0  0  0  0  0  0  0  0  0  0  0
   61.9179   -8.2379   -8.5455 O   0  0  0  0  0  0  0  0  0  0  0  0
   60.0897   -8.2051  -10.1597 O   0  0  0  0  0  0  0  0  0  0  0  0
   51.1130   -3.5561   -6.8187 C   0  0  0  0  0  0  0  0  0  0  0  0
   51.2856   -5.1569   -4.2666 C   0  0  0  0  0  0  0  0  0  0  0  0
   49.8040   -5.1952   -4.2101 C   0  0  0  0  0  0  0  0  0  0  0  0
   49.4176   -4.7644   -5.6315 C   0  0  0  0  0  0  0  0  0  0  0  0
   50.6321   -4.8399   -6.4242 N   0  0  0  0  0  0  0  0  0  0  0  0
   51.5727   -5.6103   -5.6715 C   0  0  0  0  0  0  0  0  0  0  0  0
   54.1186   -5.1562   -3.8455 F   0  0  0  0  0  0  0  0  0  0  0  0
   53.3337   -5.8948   -3.0418 C   0  0  0  0  0  0  0  0  0  0  0  0
   53.9734   -6.6202   -2.0415 C   0  0  0  0  0  0  0  0  0  0  0  0
   53.2339   -7.3909   -1.1909 C   0  0  0  0  0  0  0  0  0  0  0  0
   53.7743   -8.1369   -0.1795 F   0  0  0  0  0  0  0  0  0  0  0  0
   51.8699   -7.4364   -1.3385 C   0  0  0  0  0  0  0  0  0  0  0  0
   51.2599   -6.7140   -2.3307 C   0  0  0  0  0  0  0  0  0  0  0  0
   51.9726   -5.9125   -3.2235 C   0  0  0  0  0  0  0  0  0  0  0  0
 26 27  1  0  0  0
 27 28  2  0  0  0
 28 29  1  0  0  0
 29 30  1  0  0  0
 29 31  2  0  0  0
 31 32  1  0  0  0
 32 33  2  0  0  0
 33 21  1  0  0  0
 21 22  1  0  0  0
 22 23  1  0  0  0
 23 24  1  0  0  0
 24 20  1  0  0  0
 20  1  1  0  0  0
  1  2  2  0  0  0
  2  3  1  0  0  0
  3  4  2  0  0  0
  4  7  1  0  0  0
  7  9  1  0  0  0
  9 10  2  0  0  0
 10 11  1  0  0  0
 11 12  2  0  0  0
 12 15  1  0  0  0
 15 16  1  0  0  0
 16 17  1  0  0  0
 16 18  2  0  0  0
 16 19  2  0  0  0
 12 13  1  0  0  0
 13 14  2  0  0  0
  4  5  1  0  0  0
  5  6  2  0  0  0
 24 25  1  0  0  0
 33 27  1  0  0  0
 25 21  1  0  0  0
  6  1  1  0  0  0
 14  9  1  0  0  0
  7  8  1  0  0  0
M  END
> <minimizedAffinity>
-8.58925

> <CNNscore>
0.1563273221

> <CNNaffinity>
6.3110828400

> <CNN_VS>
0.9865946770

> <CNNaffinity_variance>
0.2874186635

$$$$
[H]c1nc(OS(=O)(=O)C([H])([H])[H])c([H])c([H])c1N([H])c1nc([H])c(C([H])([H])N2C([H])([H])C([H])([H])C([H])(c3c([H])c([H])c(F)c([H])c3F)C2([H])[H])c([H])c1[H]


 33 36  0  0  0  0  0  0  0  0999 V2000
   53.5538   -3.9361   -8.1718 C   0  0  0  0  0  0  0  0  0  0  0  0
   53.5004   -3.9240   -9.5436 C   0  0  0  0  0  0  0  0  0  0  0  0
   54.6788   -3.9673  -10.2768 C   0  0  0  0  0  0  0  0  0  0  0  0
   55.8880   -4.0230   -9.6499 C   0  0  0  0  0  0  0  0  0  0  0  0
   55.8866   -4.0321   -8.2922 N   0  0  0  0  0  0  0  0  0  0  0  0
   54.7789   -3.9911   -7.5658 C   0  0  0  0  0  0  0  0  0  0  0  0
   57.1190   -4.1029  -10.2886 N   0  0  0  0  0  0  0  0  0  0  0  0
   57.2565   -3.5194  -11.1805 H   0  0  0  0  0  0  0  0  0  0  0  0
   58.2027   -4.8764   -9.8813 C   0  0  0  0  0  0  0  0  0  0  0  0
   58.3927   -5.3182   -8.6128 C   0  0  0  0  0  0  0  0  0  0  0  0
   59.4989   -6.1133   -8.2918 C   0  0  0  0  0  0  0  0  0  0  0  0
   60.3919   -6.4392   -9.2832 C   0  0  0  0  0  0  0  0  0  0  0  0
   60.1956   -5.9962  -10.5358 N   0  0  0  0  0  0  0  0  0  0  0  0
   59.1479   -5.2426  -10.8448 C   0  0  0  0  0  0  0  0  0  0  0  0
   61.4816   -7.2335   -8.9233 O   0  0  0  0  0  0  0  0  0  0  0  0
   63.0246   -6.6126   -9.3007 S   0  0  0  0  0  0  0  0  0  0  0  0
   64.2281   -7.8987   -9.0447 C   0  0  0  0  0  0  0  0  0  0  0  0
   62.9967   -6.2061  -10.7387 O   0  0  0  0  0  0  0  0  0  0  0  0
   63.3413   -5.4180   -8.4563 O   0  0  0  0  0  0  0  0  0  0  0  0
   52.2853   -3.8774   -7.3827 C   0  0  0  0  0  0  0  0  0  0  0  0
   51.6352   -5.4492   -4.8903 C   0  0  0  0  0  0  0  0  0  0  0  0
   50.2556   -5.6497   -5.3967 C   0  0  0  0  0  0  0  0  0  0  0  0
   50.3975   -5.2640   -6.8754 C   0  0  0  0  0  0  0  0  0  0  0  0
   51.8232   -5.2061   -7.1461 N   0  0  0  0  0  0  0  0  0  0  0  0
   52.4795   -5.8687   -6.0620 C   0  0  0  0  0  0  0  0  0  0  0  0
   49.9092   -5.5280   -2.6060 F   0  0  0  0  0  0  0  0  0  0  0  0
   51.1006   -6.1485   -2.5527 C   0  0  0  0  0  0  0  0  0  0  0  0
   51.4119   -6.7984   -1.3623 C   0  0  0  0  0  0  0  0  0  0  0  0
   52.6068   -7.4482   -1.2425 C   0  0  0  0  0  0  0  0  0  0  0  0
   52.9984   -8.1134   -0.1129 F   0  0  0  0  0  0  0  0  0  0  0  0
   53.4811   -7.4485   -2.3006 C   0  0  0  0  0  0  0  0  0  0  0  0
   53.1547   -6.8021   -3.4642 C   0  0  0  0  0  0  0  0  0  0  0  0
   51.9464   -6.1248   -3.6342 C   0  0  0  0  0  0  0  0  0  0  0  0
 26 27  1  0  0  0
 27 28  2  0  0  0
 28 29  1  0  0  0
 29 30  1  0  0  0
 29 31  2  0  0  0
 31 32  1  0  0  0
 32 33  2  0  0  0
 33 21  1  0  0  0
 21 22  1  0  0  0
 22 23  1  0  0  0
 23 24  1  0  0  0
 24 20  1  0  0  0
 20  1  1  0  0  0
  1  2  2  0  0  0
  2  3  1  0  0  0
  3  4  2  0  0  0
  4  7  1  0  0  0
  7  9  1  0  0  0
  9 10  2  0  0  0
 10 11  1  0  0  0
 11 12  2  0  0  0
 12 15  1  0  0  0
 15 16  1  0  0  0
 16 17  1  0  0  0
 16 18  2  0  0  0
 16 19  2  0  0  0
 12 13  1  0  0  0
 13 14  2  0  0  0
  4  5  1  0  0  0
  5  6  2  0  0  0
 24 25  1  0  0  0
 33 27  1  0  0  0
 25 21  1  0  0  0
  6  1  1  0  0  0
 14  9  1  0  0  0
  7  8  1  0  0  0
M  END
> <minimizedAffinity>
-7.87588

> <CNNscore>
0.1469644457

> <CNNaffinity>
6.1548261642

> <CNN_VS>
0.9045405984

> <CNNaffinity_variance>
0.2696441114

$$$$
[H]OC(=O)C([H])([H])C(=O)N([H])C([H])([H])C([H])([H])C([H])([H])C([H])(C(=O)N([H])c1c([H])nc([H])c([H])c1C([H])([H])[H])N([H])S(=O)(=O)C([H])([H])[H]


 30 30  0  0  0  0  0  0  0  0999 V2000
   55.5494   -4.0874   -9.1969 C   0  0  0  0  0  0  0  0  0  0  0  0
   54.1087   -3.7292   -9.0111 C   0  0  0  0  0  0  0  0  0  0  0  0
   53.5616   -3.2804  -10.0352 O   0  0  0  0  0  0  0  0  0  0  0  0
   53.4432   -3.8865   -7.7953 N   0  0  0  0  0  0  0  0  0  0  0  0
   54.0480   -4.2852   -7.0080 H   0  0  0  0  0  0  0  0  0  0  0  0
   52.1231   -3.5987   -7.4814 C   0  0  0  0  0  0  0  0  0  0  0  0
   51.4343   -2.4680   -7.8556 C   0  0  0  0  0  0  0  0  0  0  0  0
   50.1278   -2.2599   -7.5013 N   0  0  0  0  0  0  0  0  0  0  0  0
   49.4360   -3.1391   -6.7703 C   0  0  0  0  0  0  0  0  0  0  0  0
   50.0643   -4.2911   -6.3628 C   0  0  0  0  0  0  0  0  0  0  0  0
   51.3749   -4.5096   -6.7129 C   0  0  0  0  0  0  0  0  0  0  0  0
   52.0673   -5.7442   -6.2837 C   0  0  0  0  0  0  0  0  0  0  0  0
   56.2127   -3.3012  -10.1780 N   0  0  0  0  0  0  0  0  0  0  0  0
   56.9456   -2.6753   -9.8230 H   0  0  0  0  0  0  0  0  0  0  0  0
   58.1169   -3.3780  -12.3660 C   0  0  0  0  0  0  0  0  0  0  0  0
   56.9568   -4.2975  -11.3895 S   0  0  0  0  0  0  0  0  0  0  0  0
   57.7096   -5.4207  -10.7274 O   0  0  0  0  0  0  0  0  0  0  0  0
   55.9490   -4.9041  -12.3011 O   0  0  0  0  0  0  0  0  0  0  0  0
   56.1972   -3.9897   -7.8299 C   0  0  0  0  0  0  0  0  0  0  0  0
   56.8663   -5.2709   -7.4398 C   0  0  0  0  0  0  0  0  0  0  0  0
   55.9726   -6.0881   -6.5547 C   0  0  0  0  0  0  0  0  0  0  0  0
   55.7520   -5.4605   -5.2658 N   0  0  0  0  0  0  0  0  0  0  0  0
   55.0838   -6.1999   -4.2515 C   0  0  0  0  0  0  0  0  0  0  0  0
   54.6898   -7.3809   -4.4680 O   0  0  0  0  0  0  0  0  0  0  0  0
   56.0776   -4.4906   -5.0968 H   0  0  0  0  0  0  0  0  0  0  0  0
   54.8676   -5.5389   -2.9383 C   0  0  0  0  0  0  0  0  0  0  0  0
   56.0751   -4.8768   -2.4370 C   0  0  0  0  0  0  0  0  0  0  0  0
   56.5922   -3.6853   -2.9095 O   0  0  0  0  0  0  0  0  0  0  0  0
   56.6917   -5.4535   -1.4887 O   0  0  0  0  0  0  0  0  0  0  0  0
   56.7743   -2.9387   -2.2347 H   0  0  0  0  0  0  0  0  0  0  0  0
 15 16  1  0  0  0
 16 17  2  0  0  0
 16 18  2  0  0  0
 16 13  1  0  0  0
 13  1  1  0  0  0
  1 19  1  0  0  0
 19 20  1  0  0  0
 20 21  1  0  0  0
 21 22  1  0  0  0
 22 23  1  0  0  0
 23 24  2  0  0  0
 23 26  1  0  0  0
 26 27  1  0  0  0
 27 28  1  0  0  0
 27 29  2  0  0  0
  1  2  1  0  0  0
  2  3  2  0  0  0
  2  4  1  0  0  0
  4  6  1  0  0  0
  6  7  2  0  0  0
  7  8  1  0  0  0
  8  9  2  0  0  0
  9 10  1  0  0  0
 10 11  2  0  0  0
 11 12  1  0  0  0
 11  6  1  0  0  0
 13 14  1  0  0  0
 22 25  1  0  0  0
 28 30  1  0  0  0
  4  5  1  0  0  0
M  END
> <minimizedAffinity>
-6.93717

> <CNNscore>
0.6419349909

> <CNNaffinity>
6.5171813965

> <CNN_VS>
4.1836066246

> <CNNaffinity_variance>
0.1926340610

$$$$
[H]OC(=O)C([H])([H])C(=O)N([H])C([H])([H])C([H])([H])C([H])([H])C([H])(C(=O)N([H])c1c([H])nc([H])c([H])c1C([H])([H])[H])N([H])S(=O)(=O)C([H])([H])[H]


 30 30  0  0  0  0  0  0  0  0999 V2000
   56.6762   -4.3874  -10.0472 C   0  0  0  0  0  0  0  0  0  0  0  0
   55.5884   -3.9492   -9.1182 C   0  0  0  0  0  0  0  0  0  0  0  0
   55.9993   -3.4985   -8.0330 O   0  0  0  0  0  0  0  0  0  0  0  0
   54.2354   -4.0404   -9.4450 N   0  0  0  0  0  0  0  0  0  0  0  0
   54.0407   -4.4484  -10.4147 H   0  0  0  0  0  0  0  0  0  0  0  0
   53.1305   -3.6767   -8.6894 C   0  0  0  0  0  0  0  0  0  0  0  0
   52.4047   -2.5165   -8.8306 C   0  0  0  0  0  0  0  0  0  0  0  0
   51.3233   -2.2325   -8.0396 N   0  0  0  0  0  0  0  0  0  0  0  0
   50.9016   -3.0613   -7.0798 C   0  0  0  0  0  0  0  0  0  0  0  0
   51.5822   -4.2389   -6.8851 C   0  0  0  0  0  0  0  0  0  0  0  0
   52.6683   -4.5335   -7.6733 C   0  0  0  0  0  0  0  0  0  0  0  0
   53.4127   -5.7968   -7.4785 C   0  0  0  0  0  0  0  0  0  0  0  0
   56.9797   -3.4385  -11.0612 N   0  0  0  0  0  0  0  0  0  0  0  0
   57.7698   -2.8135  -10.8611 H   0  0  0  0  0  0  0  0  0  0  0  0
   56.5036   -3.4289  -13.9234 C   0  0  0  0  0  0  0  0  0  0  0  0
   57.3357   -4.2183  -12.5709 S   0  0  0  0  0  0  0  0  0  0  0  0
   58.8149   -4.1439  -12.8415 O   0  0  0  0  0  0  0  0  0  0  0  0
   56.9507   -5.6556  -12.5543 O   0  0  0  0  0  0  0  0  0  0  0  0
   57.8735   -4.7236   -9.1804 C   0  0  0  0  0  0  0  0  0  0  0  0
   58.6688   -5.8578   -9.7479 C   0  0  0  0  0  0  0  0  0  0  0  0
   59.8399   -6.1778   -8.8670 C   0  0  0  0  0  0  0  0  0  0  0  0
   61.0779   -6.2852   -9.6151 N   0  0  0  0  0  0  0  0  0  0  0  0
   61.4492   -7.5522  -10.1431 C   0  0  0  0  0  0  0  0  0  0  0  0
   60.7153   -8.5654   -9.9646 O   0  0  0  0  0  0  0  0  0  0  0  0
   61.6749   -5.4491   -9.7561 H   0  0  0  0  0  0  0  0  0  0  0  0
   62.7210   -7.6410  -10.9064 C   0  0  0  0  0  0  0  0  0  0  0  0
   62.9879   -6.4354  -11.6957 C   0  0  0  0  0  0  0  0  0  0  0  0
   64.1947   -5.7643  -11.7531 O   0  0  0  0  0  0  0  0  0  0  0  0
   62.0233   -5.9758  -12.3816 O   0  0  0  0  0  0  0  0  0  0  0  0
   64.6018   -5.5843  -12.6738 H   0  0  0  0  0  0  0  0  0  0  0  0
 15 16  1  0  0  0
 16 17  2  0  0  0
 16 18  2  0  0  0
 16 13  1  0  0  0
 13  1  1  0  0  0
  1 19  1  0  0  0
 19 20  1  0  0  0
 20 21  1  0  0  0
 21 22  1  0  0  0
 22 23  1  0  0  0
 23 24  2  0  0  0
 23 26  1  0  0  0
 26 27  1  0  0  0
 27 28  1  0  0  0
 27 29  2  0  0  0
  1  2  1  0  0  0
  2  3  2  0  0  0
  2  4  1  0  0  0
  4  6  1  0  0  0
  6  7  2  0  0  0
  7  8  1  0  0  0
  8  9  2  0  0  0
  9 10  1  0  0  0
 10 11  2  0  0  0
 11 12  1  0  0  0
 11  6  1  0  0  0
 13 14  1  0  0  0
 22 25  1  0  0  0
 28 30  1  0  0  0
  4  5  1  0  0  0
M  END
> <minimizedAffinity>
-6.71220

> <CNNscore>
0.6246696115

> <CNNaffinity>
6.1309280396

> <CNN_VS>
3.8298044205

> <CNNaffinity_variance>
0.1996672601

$$$$
[H]OC(=O)C([H])([H])C(=O)N([H])C([H])([H])C([H])([H])C([H])([H])C([H])(C(=O)N([H])c1c([H])nc([H])c([H])c1C([H])([H])[H])N([H])S(=O)(=O)C([H])([H])[H]


 30 30  0  0  0  0  0  0  0  0999 V2000
   53.7084   -4.7298   -7.1435 C   0  0  0  0  0  0  0  0  0  0  0  0
   54.3019   -4.4808   -8.4941 C   0  0  0  0  0  0  0  0  0  0  0  0
   53.4942   -4.0315   -9.3279 O   0  0  0  0  0  0  0  0  0  0  0  0
   55.6424   -4.7321   -8.7868 N   0  0  0  0  0  0  0  0  0  0  0  0
   56.2103   -5.1164   -7.9655 H   0  0  0  0  0  0  0  0  0  0  0  0
   56.3216   -4.5511   -9.9826 C   0  0  0  0  0  0  0  0  0  0  0  0
   55.7832   -4.0552  -11.1475 C   0  0  0  0  0  0  0  0  0  0  0  0
   56.5257   -3.9087  -12.2890 N   0  0  0  0  0  0  0  0  0  0  0  0
   57.8198   -4.2368  -12.3478 C   0  0  0  0  0  0  0  0  0  0  0  0
   58.4207   -4.7387  -11.2186 C   0  0  0  0  0  0  0  0  0  0  0  0
   57.6848   -4.8895  -10.0682 C   0  0  0  0  0  0  0  0  0  0  0  0
   58.3149   -5.4275   -8.8429 C   0  0  0  0  0  0  0  0  0  0  0  0
   52.6437   -5.6716   -7.1509 N   0  0  0  0  0  0  0  0  0  0  0  0
   52.8163   -6.5397   -6.6299 H   0  0  0  0  0  0  0  0  0  0  0  0
   50.9760   -3.3012   -7.0141 C   0  0  0  0  0  0  0  0  0  0  0  0
   51.1877   -4.9853   -6.5006 S   0  0  0  0  0  0  0  0  0  0  0  0
   49.9976   -5.7641   -6.9944 O   0  0  0  0  0  0  0  0  0  0  0  0
   51.1723   -5.0305   -5.0132 O   0  0  0  0  0  0  0  0  0  0  0  0
   54.8528   -5.1443   -6.2399 C   0  0  0  0  0  0  0  0  0  0  0  0
   54.4856   -6.3131   -5.3796 C   0  0  0  0  0  0  0  0  0  0  0  0
   54.4208   -5.9100   -3.9362 C   0  0  0  0  0  0  0  0  0  0  0  0
   55.5328   -5.0620   -3.5515 N   0  0  0  0  0  0  0  0  0  0  0  0
   56.1064   -5.2313   -2.2614 C   0  0  0  0  0  0  0  0  0  0  0  0
   55.6568   -6.1035   -1.4652 O   0  0  0  0  0  0  0  0  0  0  0  0
   55.8950   -4.3480   -4.2106 H   0  0  0  0  0  0  0  0  0  0  0  0
   57.2447   -4.3526   -1.8867 C   0  0  0  0  0  0  0  0  0  0  0  0
   58.2858   -5.0680   -1.1437 C   0  0  0  0  0  0  0  0  0  0  0  0
   58.0702   -5.9103   -0.0693 O   0  0  0  0  0  0  0  0  0  0  0  0
   59.4838   -4.8934   -1.5262 O   0  0  0  0  0  0  0  0  0  0  0  0
   58.4627   -6.8537   -0.1111 H   0  0  0  0  0  0  0  0  0  0  0  0
 15 16  1  0  0  0
 16 17  2  0  0  0
 16 18  2  0  0  0
 16 13  1  0  0  0
 13  1  1  0  0  0
  1 19  1  0  0  0
 19 20  1  0  0  0
 20 21  1  0  0  0
 21 22  1  0  0  0
 22 23  1  0  0  0
 23 24  2  0  0  0
 23 26  1  0  0  0
 26 27  1  0  0  0
 27 28  1  0  0  0
 27 29  2  0  0  0
  1  2  1  0  0  0
  2  3  2  0  0  0
  2  4  1  0  0  0
  4  6  1  0  0  0
  6  7  2  0  0  0
  7  8  1  0  0  0
  8  9  2  0  0  0
  9 10  1  0  0  0
 10 11  2  0  0  0
 11 12  1  0  0  0
 11  6  1  0  0  0
 13 14  1  0  0  0
 22 25  1  0  0  0
 28 30  1  0  0  0
  4  5  1  0  0  0
M  END
> <minimizedAffinity>
-6.74603

> <CNNscore>
0.6139158010

> <CNNaffinity>
6.4207658768

> <CNN_VS>
3.9418096542

> <CNNaffinity_variance>
0.1399501562

$$$$
[H]OC(=O)C([H])([H])C(=O)N([H])C([H])([H])C([H])([H])C([H])([H])C([H])(C(=O)N([H])c1c([H])nc([H])c([H])c1C([H])([H])[H])N([H])S(=O)(=O)C([H])([H])[H]


 30 30  0  0  0  0  0  0  0  0999 V2000
   56.4820   -4.4349  -10.0230 C   0  0  0  0  0  0  0  0  0  0  0  0
   55.4163   -3.9321   -9.1011 C   0  0  0  0  0  0  0  0  0  0  0  0
   55.8525   -3.3413   -8.0961 O   0  0  0  0  0  0  0  0  0  0  0  0
   54.0560   -4.1128   -9.3513 N   0  0  0  0  0  0  0  0  0  0  0  0
   53.8385   -4.6394  -10.2569 H   0  0  0  0  0  0  0  0  0  0  0  0
   52.9691   -3.7050   -8.5920 C   0  0  0  0  0  0  0  0  0  0  0  0
   52.2771   -2.5257   -8.7446 C   0  0  0  0  0  0  0  0  0  0  0  0
   51.2117   -2.1978   -7.9489 N   0  0  0  0  0  0  0  0  0  0  0  0
   50.7739   -2.9993   -6.9733 C   0  0  0  0  0  0  0  0  0  0  0  0
   51.4205   -4.1939   -6.7667 C   0  0  0  0  0  0  0  0  0  0  0  0
   52.4904   -4.5325   -7.5594 C   0  0  0  0  0  0  0  0  0  0  0  0
   53.1983   -5.8145   -7.3520 C   0  0  0  0  0  0  0  0  0  0  0  0
   57.0831   -3.4169  -10.8123 N   0  0  0  0  0  0  0  0  0  0  0  0
   58.0131   -3.1084  -10.5042 H   0  0  0  0  0  0  0  0  0  0  0  0
   58.8755   -3.5745  -13.0886 C   0  0  0  0  0  0  0  0  0  0  0  0
   57.2500   -3.9152  -12.4669 S   0  0  0  0  0  0  0  0  0  0  0  0
   57.0250   -5.4001  -12.5724 O   0  0  0  0  0  0  0  0  0  0  0  0
   56.2572   -3.2436  -13.3487 O   0  0  0  0  0  0  0  0  0  0  0  0
   57.4832   -5.1769   -9.1599 C   0  0  0  0  0  0  0  0  0  0  0  0
   58.8489   -5.1814   -9.7729 C   0  0  0  0  0  0  0  0  0  0  0  0
   59.4898   -6.5302   -9.6311 C   0  0  0  0  0  0  0  0  0  0  0  0
   60.3274   -6.6198   -8.4503 N   0  0  0  0  0  0  0  0  0  0  0  0
   61.7144   -6.8858   -8.6154 C   0  0  0  0  0  0  0  0  0  0  0  0
   62.2085   -7.0410   -9.7681 O   0  0  0  0  0  0  0  0  0  0  0  0
   59.9136   -6.4923   -7.5080 H   0  0  0  0  0  0  0  0  0  0  0  0
   62.5551   -6.9737   -7.3933 C   0  0  0  0  0  0  0  0  0  0  0  0
   63.7667   -6.1544   -7.4846 C   0  0  0  0  0  0  0  0  0  0  0  0
   63.9839   -5.1417   -8.3998 O   0  0  0  0  0  0  0  0  0  0  0  0
   64.6893   -6.4027   -6.6484 O   0  0  0  0  0  0  0  0  0  0  0  0
   64.2578   -4.2227   -8.0445 H   0  0  0  0  0  0  0  0  0  0  0  0
 15 16  1  0  0  0
 16 17  2  0  0  0
 16 18  2  0  0  0
 16 13  1  0  0  0
 13  1  1  0  0  0
  1 19  1  0  0  0
 19 20  1  0  0  0
 20 21  1  0  0  0
 21 22  1  0  0  0
 22 23  1  0  0  0
 23 24  2  0  0  0
 23 26  1  0  0  0
 26 27  1  0  0  0
 27 28  1  0  0  0
 27 29  2  0  0  0
  1  2  1  0  0  0
  2  3  2  0  0  0
  2  4  1  0  0  0
  4  6  1  0  0  0
  6  7  2  0  0  0
  7  8  1  0  0  0
  8  9  2  0  0  0
  9 10  1  0  0  0
 10 11  2  0  0  0
 11 12  1  0  0  0
 11  6  1  0  0  0
 13 14  1  0  0  0
 22 25  1  0  0  0
 28 30  1  0  0  0
  4  5  1  0  0  0
M  END
> <minimizedAffinity>
-6.37693

> <CNNscore>
0.5936089158

> <CNNaffinity>
5.9946546555

> <CNN_VS>
3.5584805012

> <CNNaffinity_variance>
0.1327083856

$$$$
[H]OC(=O)C([H])([H])C(=O)N([H])C([H])([H])C([H])([H])C([H])([H])C([H])(C(=O)N([H])c1c([H])nc([H])c([H])c1C([H])([H])[H])N([H])S(=O)(=O)C([H])([H])[H]


 30 30  0  0  0  0  0  0  0  0999 V2000
   54.8912   -4.3011   -9.2424 C   0  0  0  0  0  0  0  0  0  0  0  0
   53.5680   -3.7242   -8.8490 C   0  0  0  0  0  0  0  0  0  0  0  0
   53.1132   -2.8981   -9.6615 O   0  0  0  0  0  0  0  0  0  0  0  0
   52.9076   -4.0843   -7.6743 N   0  0  0  0  0  0  0  0  0  0  0  0
   53.4252   -4.8073   -7.0793 H   0  0  0  0  0  0  0  0  0  0  0  0
   51.6891   -3.6347   -7.1873 C   0  0  0  0  0  0  0  0  0  0  0  0
   50.9974   -2.5347   -7.6395 C   0  0  0  0  0  0  0  0  0  0  0  0
   49.7960   -2.1573   -7.1009 N   0  0  0  0  0  0  0  0  0  0  0  0
   49.2165   -2.8304   -6.1024 C   0  0  0  0  0  0  0  0  0  0  0  0
   49.8545   -3.9402   -5.6031 C   0  0  0  0  0  0  0  0  0  0  0  0
   51.0600   -4.3274   -6.1364 C   0  0  0  0  0  0  0  0  0  0  0  0
   51.7609   -5.5198   -5.6120 C   0  0  0  0  0  0  0  0  0  0  0  0
   55.8294   -3.3302   -9.6872 N   0  0  0  0  0  0  0  0  0  0  0  0
   56.4672   -2.9684   -8.9680 H   0  0  0  0  0  0  0  0  0  0  0  0
   57.9752   -5.1627  -10.3632 C   0  0  0  0  0  0  0  0  0  0  0  0
   56.8264   -3.9530  -10.9647 S   0  0  0  0  0  0  0  0  0  0  0  0
   55.9619   -4.6224  -11.9997 O   0  0  0  0  0  0  0  0  0  0  0  0
   57.5915   -2.8729  -11.6447 O   0  0  0  0  0  0  0  0  0  0  0  0
   55.3873   -5.0939   -8.0494 C   0  0  0  0  0  0  0  0  0  0  0  0
   56.3139   -4.2877   -7.1936 C   0  0  0  0  0  0  0  0  0  0  0  0
   55.9883   -4.4704   -5.7408 C   0  0  0  0  0  0  0  0  0  0  0  0
   56.0150   -5.8647   -5.3422 N   0  0  0  0  0  0  0  0  0  0  0  0
   55.2844   -6.2593   -4.1879 C   0  0  0  0  0  0  0  0  0  0  0  0
   54.6242   -5.4122   -3.5219 O   0  0  0  0  0  0  0  0  0  0  0  0
   56.5602   -6.5532   -5.8938 H   0  0  0  0  0  0  0  0  0  0  0  0
   55.3248   -7.6922   -3.7965 C   0  0  0  0  0  0  0  0  0  0  0  0
   56.5996   -8.0707   -3.1807 C   0  0  0  0  0  0  0  0  0  0  0  0
   56.7790   -9.0968   -2.2724 O   0  0  0  0  0  0  0  0  0  0  0  0
   57.6199   -7.3934   -3.5158 O   0  0  0  0  0  0  0  0  0  0  0  0
   57.4938   -9.7994   -2.4752 H   0  0  0  0  0  0  0  0  0  0  0  0
 15 16  1  0  0  0
 16 17  2  0  0  0
 16 18  2  0  0  0
 16 13  1  0  0  0
 13  1  1  0  0  0
  1 19  1  0  0  0
 19 20  1  0  0  0
 20 21  1  0  0  0
 21 22  1  0  0  0
 22 23  1  0  0  0
 23 24  2  0  0  0
 23 26  1  0  0  0
 26 27  1  0  0  0
 27 28  1  0  0  0
 27 29  2  0  0  0
  1  2  1  0  0  0
  2  3  2  0  0  0
  2  4  1  0  0  0
  4  6  1  0  0  0
  6  7  2  0  0  0
  7  8  1  0  0  0
  8  9  2  0  0  0
  9 10  1  0  0  0
 10 11  2  0  0  0
 11 12  1  0  0  0
 11  6  1  0  0  0
 13 14  1  0  0  0
 22 25  1  0  0  0
 28 30  1  0  0  0
  4  5  1  0  0  0
M  END
> <minimizedAffinity>
-7.40204

> <CNNscore>
0.5832686424

> <CNNaffinity>
6.4329323769

> <CNN_VS>
3.7521276474

> <CNNaffinity_variance>
0.1285986155

$$$$
[H]OC(=O)C([H])([H])C(=O)N([H])C([H])([H])C([H])([H])C([H])([H])C([H])(C(=O)N([H])c1c([H])nc([H])c([H])c1C([H])([H])[H])N([H])S(=O)(=O)C([H])([H])[H]


 30 30  0  0  0  0  0  0  0  0999 V2000
   56.1969   -4.3631  -10.6476 C   0  0  0  0  0  0  0  0  0  0  0  0
   54.8740   -4.0054  -10.0474 C   0  0  0  0  0  0  0  0  0  0  0  0
   54.1359   -3.3466  -10.8029 O   0  0  0  0  0  0  0  0  0  0  0  0
   54.5063   -4.3797   -8.7550 N   0  0  0  0  0  0  0  0  0  0  0  0
   55.2479   -4.9442   -8.2297 H   0  0  0  0  0  0  0  0  0  0  0  0
   53.3250   -4.1199   -8.0758 C   0  0  0  0  0  0  0  0  0  0  0  0
   52.4664   -3.0741   -8.3244 C   0  0  0  0  0  0  0  0  0  0  0  0
   51.3167   -2.8880   -7.6036 N   0  0  0  0  0  0  0  0  0  0  0  0
   50.9528   -3.7078   -6.6130 C   0  0  0  0  0  0  0  0  0  0  0  0
   51.7659   -4.7737   -6.3121 C   0  0  0  0  0  0  0  0  0  0  0  0
   52.9215   -4.9694   -7.0291 C   0  0  0  0  0  0  0  0  0  0  0  0
   53.8088   -6.1117   -6.7197 C   0  0  0  0  0  0  0  0  0  0  0  0
   56.7200   -3.3662  -11.5156 N   0  0  0  0  0  0  0  0  0  0  0  0
   57.5544   -2.8746  -11.1738 H   0  0  0  0  0  0  0  0  0  0  0  0
   56.1968   -3.2837  -14.3684 C   0  0  0  0  0  0  0  0  0  0  0  0
   57.1371   -4.0315  -13.0640 S   0  0  0  0  0  0  0  0  0  0  0  0
   58.5930   -3.7750  -13.3485 O   0  0  0  0  0  0  0  0  0  0  0  0
   56.9198   -5.5030  -13.1095 O   0  0  0  0  0  0  0  0  0  0  0  0
   57.1236   -4.6790   -9.4904 C   0  0  0  0  0  0  0  0  0  0  0  0
   58.4840   -5.0868   -9.9638 C   0  0  0  0  0  0  0  0  0  0  0  0
   59.2359   -5.7920   -8.8741 C   0  0  0  0  0  0  0  0  0  0  0  0
   59.8859   -6.9994   -9.3468 N   0  0  0  0  0  0  0  0  0  0  0  0
   61.3057   -7.0688   -9.3126 C   0  0  0  0  0  0  0  0  0  0  0  0
   61.9886   -6.0980   -8.8788 O   0  0  0  0  0  0  0  0  0  0  0  0
   59.3181   -7.7910   -9.7022 H   0  0  0  0  0  0  0  0  0  0  0  0
   61.9522   -8.3144   -9.8013 C   0  0  0  0  0  0  0  0  0  0  0  0
   61.8935   -9.4005   -8.8192 C   0  0  0  0  0  0  0  0  0  0  0  0
   62.2340  -10.7184   -9.0585 O   0  0  0  0  0  0  0  0  0  0  0  0
   61.4952   -9.0958   -7.6527 O   0  0  0  0  0  0  0  0  0  0  0  0
   62.9136  -11.1606   -8.4353 H   0  0  0  0  0  0  0  0  0  0  0  0
 15 16  1  0  0  0
 16 17  2  0  0  0
 16 18  2  0  0  0
 16 13  1  0  0  0
 13  1  1  0  0  0
  1 19  1  0  0  0
 19 20  1  0  0  0
 20 21  1  0  0  0
 21 22  1  0  0  0
 22 23  1  0  0  0
 23 24  2  0  0  0
 23 26  1  0  0  0
 26 27  1  0  0  0
 27 28  1  0  0  0
 27 29  2  0  0  0
  1  2  1  0  0  0
  2  3  2  0  0  0
  2  4  1  0  0  0
  4  6  1  0  0  0
  6  7  2  0  0  0
  7  8  1  0  0  0
  8  9  2  0  0  0
  9 10  1  0  0  0
 10 11  2  0  0  0
 11 12  1  0  0  0
 11  6  1  0  0  0
 13 14  1  0  0  0
 22 25  1  0  0  0
 28 30  1  0  0  0
  4  5  1  0  0  0
M  END
> <minimizedAffinity>
-6.47775

> <CNNscore>
0.4647380710

> <CNNaffinity>
6.0012230873

> <CNN_VS>
2.7889969349

> <CNNaffinity_variance>
0.2023601979

$$$$
[H]OC(=O)C([H])([H])C(=O)N([H])C([H])([H])C([H])([H])C([H])([H])C([H])(C(=O)N([H])c1c([H])nc([H])c([H])c1C([H])([H])[H])N([H])S(=O)(=O)C([H])([H])[H]


 30 30  0  0  0  0  0  0  0  0999 V2000
   55.5581   -3.4180   -8.7620 C   0  0  0  0  0  0  0  0  0  0  0  0
   55.7884   -4.0559   -7.4285 C   0  0  0  0  0  0  0  0  0  0  0  0
   56.3689   -3.3212   -6.6083 O   0  0  0  0  0  0  0  0  0  0  0  0
   55.3859   -5.3592   -7.1363 N   0  0  0  0  0  0  0  0  0  0  0  0
   54.8985   -5.8636   -7.9442 H   0  0  0  0  0  0  0  0  0  0  0  0
   55.5329   -6.0721   -5.9555 C   0  0  0  0  0  0  0  0  0  0  0  0
   56.7240   -6.4996   -5.4158 C   0  0  0  0  0  0  0  0  0  0  0  0
   56.7815   -7.2020   -4.2414 N   0  0  0  0  0  0  0  0  0  0  0  0
   55.6871   -7.5185   -3.5428 C   0  0  0  0  0  0  0  0  0  0  0  0
   54.4635   -7.1218   -4.0259 C   0  0  0  0  0  0  0  0  0  0  0  0
   54.3949   -6.4166   -5.2030 C   0  0  0  0  0  0  0  0  0  0  0  0
   53.0865   -5.9807   -5.7380 C   0  0  0  0  0  0  0  0  0  0  0  0
   55.4120   -4.3505   -9.8250 N   0  0  0  0  0  0  0  0  0  0  0  0
   54.5570   -4.2528  -10.3857 H   0  0  0  0  0  0  0  0  0  0  0  0
   58.1282   -5.2134  -10.3696 C   0  0  0  0  0  0  0  0  0  0  0  0
   56.7444   -4.2589  -10.9342 S   0  0  0  0  0  0  0  0  0  0  0  0
   56.3272   -4.8103  -12.2716 O   0  0  0  0  0  0  0  0  0  0  0  0
   57.1931   -2.8556  -11.1437 O   0  0  0  0  0  0  0  0  0  0  0  0
   54.3519   -2.5136   -8.6043 C   0  0  0  0  0  0  0  0  0  0  0  0
   53.1406   -3.0813   -9.2762 C   0  0  0  0  0  0  0  0  0  0  0  0
   52.2702   -3.7960   -8.2855 C   0  0  0  0  0  0  0  0  0  0  0  0
   51.3801   -2.8919   -7.5825 N   0  0  0  0  0  0  0  0  0  0  0  0
   50.2614   -3.4342   -6.8922 C   0  0  0  0  0  0  0  0  0  0  0  0
   50.0464   -4.6795   -6.8907 O   0  0  0  0  0  0  0  0  0  0  0  0
   51.5633   -1.8712   -7.5897 H   0  0  0  0  0  0  0  0  0  0  0  0
   49.3619   -2.4912   -6.1784 C   0  0  0  0  0  0  0  0  0  0  0  0
   48.9081   -3.0159   -4.8875 C   0  0  0  0  0  0  0  0  0  0  0  0
   49.5672   -3.9661   -4.1307 O   0  0  0  0  0  0  0  0  0  0  0  0
   47.8163   -2.5528   -4.4339 O   0  0  0  0  0  0  0  0  0  0  0  0
   49.7724   -3.7452   -3.1535 H   0  0  0  0  0  0  0  0  0  0  0  0
 15 16  1  0  0  0
 16 17  2  0  0  0
 16 18  2  0  0  0
 16 13  1  0  0  0
 13  1  1  0  0  0
  1 19  1  0  0  0
 19 20  1  0  0  0
 20 21  1  0  0  0
 21 22  1  0  0  0
 22 23  1  0  0  0
 23 24  2  0  0  0
 23 26  1  0  0  0
 26 27  1  0  0  0
 27 28  1  0  0  0
 27 29  2  0  0  0
  1  2  1  0  0  0
  2  3  2  0  0  0
  2  4  1  0  0  0
  4  6  1  0  0  0
  6  7  2  0  0  0
  7  8  1  0  0  0
  8  9  2  0  0  0
  9 10  1  0  0  0
 10 11  2  0  0  0
 11 12  1  0  0  0
 11  6  1  0  0  0
 13 14  1  0  0  0
 22 25  1  0  0  0
 28 30  1  0  0  0
  4  5  1  0  0  0
M  END
> <minimizedAffinity>
-7.16481

> <CNNscore>
0.4315245748

> <CNNaffinity>
6.0083203316

> <CNN_VS>
2.5927379131

> <CNNaffinity_variance>
0.5470712185

$$$$
[H]OC(=O)C([H])([H])C(=O)N([H])C([H])([H])C([H])([H])C([H])([H])C([H])(C(=O)N([H])c1c([H])nc([H])c([H])c1C([H])([H])[H])N([H])S(=O)(=O)C([H])([H])[H]


 30 30  0  0  0  0  0  0  0  0999 V2000
   57.9978   -4.9470   -8.8226 C   0  0  0  0  0  0  0  0  0  0  0  0
   56.7667   -4.6313   -8.0333 C   0  0  0  0  0  0  0  0  0  0  0  0
   56.9479   -3.8054   -7.1197 O   0  0  0  0  0  0  0  0  0  0  0  0
   55.5284   -5.2144   -8.3022 N   0  0  0  0  0  0  0  0  0  0  0  0
   55.5322   -5.9045   -9.1197 H   0  0  0  0  0  0  0  0  0  0  0  0
   54.3152   -5.0182   -7.6589 C   0  0  0  0  0  0  0  0  0  0  0  0
   53.9194   -5.6180   -6.4857 C   0  0  0  0  0  0  0  0  0  0  0  0
   52.6992   -5.3693   -5.9156 N   0  0  0  0  0  0  0  0  0  0  0  0
   51.8134   -4.5292   -6.4592 C   0  0  0  0  0  0  0  0  0  0  0  0
   52.1453   -3.8958   -7.6325 C   0  0  0  0  0  0  0  0  0  0  0  0
   53.3669   -4.1383   -8.2126 C   0  0  0  0  0  0  0  0  0  0  0  0
   53.7417   -3.4650   -9.4752 C   0  0  0  0  0  0  0  0  0  0  0  0
   58.7733   -6.0050   -8.2750 N   0  0  0  0  0  0  0  0  0  0  0  0
   58.3049   -6.9177   -8.2249 H   0  0  0  0  0  0  0  0  0  0  0  0
   60.5249   -7.9688   -9.4976 C   0  0  0  0  0  0  0  0  0  0  0  0
   60.2368   -6.2487   -9.1765 S   0  0  0  0  0  0  0  0  0  0  0  0
   60.1338   -5.5492  -10.5057 O   0  0  0  0  0  0  0  0  0  0  0  0
   61.4218   -5.6965   -8.4656 O   0  0  0  0  0  0  0  0  0  0  0  0
   57.5405   -5.2271  -10.2405 C   0  0  0  0  0  0  0  0  0  0  0  0
   57.1901   -3.9677  -10.9699 C   0  0  0  0  0  0  0  0  0  0  0  0
   56.1546   -4.2342  -12.0219 C   0  0  0  0  0  0  0  0  0  0  0  0
   56.4531   -3.5600  -13.2709 N   0  0  0  0  0  0  0  0  0  0  0  0
   56.3801   -4.3018  -14.4819 C   0  0  0  0  0  0  0  0  0  0  0  0
   56.0612   -5.5246  -14.4709 O   0  0  0  0  0  0  0  0  0  0  0  0
   56.7151   -2.5567  -13.2709 H   0  0  0  0  0  0  0  0  0  0  0  0
   56.6897   -3.5926  -15.7505 C   0  0  0  0  0  0  0  0  0  0  0  0
   58.0424   -3.0290  -15.7635 C   0  0  0  0  0  0  0  0  0  0  0  0
   59.0211   -3.2689  -14.8176 O   0  0  0  0  0  0  0  0  0  0  0  0
   58.3307   -2.2562  -16.7288 O   0  0  0  0  0  0  0  0  0  0  0  0
   59.9333   -3.5983  -15.1420 H   0  0  0  0  0  0  0  0  0  0  0  0
 15 16  1  0  0  0
 16 17  2  0  0  0
 16 18  2  0  0  0
 16 13  1  0  0  0
 13  1  1  0  0  0
  1 19  1  0  0  0
 19 20  1  0  0  0
 20 21  1  0  0  0
 21 22  1  0  0  0
 22 23  1  0  0  0
 23 24  2  0  0  0
 23 26  1  0  0  0
 26 27  1  0  0  0
 27 28  1  0  0  0
 27 29  2  0  0  0
  1  2  1  0  0  0
  2  3  2  0  0  0
  2  4  1  0  0  0
  4  6  1  0  0  0
  6  7  2  0  0  0
  7  8  1  0  0  0
  8  9  2  0  0  0
  9 10  1  0  0  0
 10 11  2  0  0  0
 11 12  1  0  0  0
 11  6  1  0  0  0
 13 14  1  0  0  0
 22 25  1  0  0  0
 28 30  1  0  0  0
  4  5  1  0  0  0
M  END
> <minimizedAffinity>
-6.90158

> <CNNscore>
0.3511385322

> <CNNaffinity>
5.6687612534

> <CNN_VS>
1.9905204773

> <CNNaffinity_variance>
0.3180668354

$$$$
[H]OC(=O)C([H])([H])C(=O)N([H])C([H])([H])C([H])([H])C([H])([H])C([H])(C(=O)N([H])c1c([H])nc([H])c([H])c1C([H])([H])[H])N([H])S(=O)(=O)C([H])([H])[H]


 30 30  0  0  0  0  0  0  0  0999 V2000
   53.8999   -4.6205   -7.3319 C   0  0  0  0  0  0  0  0  0  0  0  0
   54.7630   -4.0884   -8.4320 C   0  0  0  0  0  0  0  0  0  0  0  0
   54.7623   -2.8468   -8.5216 O   0  0  0  0  0  0  0  0  0  0  0  0
   55.5005   -4.9155   -9.2791 N   0  0  0  0  0  0  0  0  0  0  0  0
   55.3985   -5.9610   -9.0760 H   0  0  0  0  0  0  0  0  0  0  0  0
   56.3340   -4.5642  -10.3307 C   0  0  0  0  0  0  0  0  0  0  0  0
   55.9400   -3.9666  -11.5057 C   0  0  0  0  0  0  0  0  0  0  0  0
   56.8304   -3.6525  -12.4979 N   0  0  0  0  0  0  0  0  0  0  0  0
   58.1384   -3.9048  -12.3915 C   0  0  0  0  0  0  0  0  0  0  0  0
   58.5997   -4.5009  -11.2427 C   0  0  0  0  0  0  0  0  0  0  0  0
   57.7148   -4.8200  -10.2412 C   0  0  0  0  0  0  0  0  0  0  0  0
   58.1933   -5.4615   -8.9973 C   0  0  0  0  0  0  0  0  0  0  0  0
   52.6704   -5.1718   -7.7847 N   0  0  0  0  0  0  0  0  0  0  0  0
   52.6614   -6.1910   -7.9104 H   0  0  0  0  0  0  0  0  0  0  0  0
   50.8225   -3.1204   -6.8924 C   0  0  0  0  0  0  0  0  0  0  0  0
   51.3702   -4.7957   -6.6974 S   0  0  0  0  0  0  0  0  0  0  0  0
   50.1964   -5.6939   -6.9837 O   0  0  0  0  0  0  0  0  0  0  0  0
   51.7614   -5.0019   -5.2765 O   0  0  0  0  0  0  0  0  0  0  0  0
   54.7449   -5.6195   -6.5665 C   0  0  0  0  0  0  0  0  0  0  0  0
   55.7391   -4.9399   -5.6773 C   0  0  0  0  0  0  0  0  0  0  0  0
   55.5756   -5.3911   -4.2562 C   0  0  0  0  0  0  0  0  0  0  0  0
   56.7786   -6.0104   -3.7338 N   0  0  0  0  0  0  0  0  0  0  0  0
   56.7737   -7.4107   -3.4863 C   0  0  0  0  0  0  0  0  0  0  0  0
   55.7418   -8.1027   -3.7169 O   0  0  0  0  0  0  0  0  0  0  0  0
   57.6207   -5.4351   -3.5463 H   0  0  0  0  0  0  0  0  0  0  0  0
   58.0161   -8.0258   -2.9511 C   0  0  0  0  0  0  0  0  0  0  0  0
   59.2276   -7.4451   -3.5364 C   0  0  0  0  0  0  0  0  0  0  0  0
   59.7561   -7.7673   -4.7722 O   0  0  0  0  0  0  0  0  0  0  0  0
   59.8368   -6.5735   -2.8426 O   0  0  0  0  0  0  0  0  0  0  0  0
   59.9425   -7.0059   -5.4290 H   0  0  0  0  0  0  0  0  0  0  0  0
 15 16  1  0  0  0
 16 17  2  0  0  0
 16 18  2  0  0  0
 16 13  1  0  0  0
 13  1  1  0  0  0
  1 19  1  0  0  0
 19 20  1  0  0  0
 20 21  1  0  0  0
 21 22  1  0  0  0
 22 23  1  0  0  0
 23 24  2  0  0  0
 23 26  1  0  0  0
 26 27  1  0  0  0
 27 28  1  0  0  0
 27 29  2  0  0  0
  1  2  1  0  0  0
  2  3  2  0  0  0
  2  4  1  0  0  0
  4  6  1  0  0  0
  6  7  2  0  0  0
  7  8  1  0  0  0
  8  9  2  0  0  0
  9 10  1  0  0  0
 10 11  2  0  0  0
 11 12  1  0  0  0
 11  6  1  0  0  0
 13 14  1  0  0  0
 22 25  1  0  0  0
 28 30  1  0  0  0
  4  5  1  0  0  0
M  END
> <minimizedAffinity>
-6.68493

> <CNNscore>
0.2772192657

> <CNNaffinity>
5.8572845459

> <CNN_VS>
1.6237521172

> <CNNaffinity_variance>
0.0351212397

$$$$
[H]c1nc([H])c(-c2oc3c([H])c([H])c(N(C([H])([H])[H])C([H])([H])C4([H])C([H])([H])C4([H])[H])c([H])c3c2[H])c([H])c1[H]


 21 24  0  0  0  0  0  0  0  0999 V2000
   59.2303   -5.6088   -9.7551 C   0  0  0  0  0  0  0  0  0  0  0  0
   58.8549   -5.1570  -10.9964 C   0  0  0  0  0  0  0  0  0  0  0  0
   57.6283   -4.5897  -11.2454 C   0  0  0  0  0  0  0  0  0  0  0  0
   56.7214   -4.4622  -10.2023 C   0  0  0  0  0  0  0  0  0  0  0  0
   55.5072   -3.9820  -10.1117 O   0  0  0  0  0  0  0  0  0  0  0  0
   55.0270   -4.0767   -8.8848 C   0  0  0  0  0  0  0  0  0  0  0  0
   56.0080   -4.6590   -8.1336 C   0  0  0  0  0  0  0  0  0  0  0  0
   57.0783   -4.9055   -8.9571 C   0  0  0  0  0  0  0  0  0  0  0  0
   58.3352   -5.4800   -8.7354 C   0  0  0  0  0  0  0  0  0  0  0  0
   53.6918   -3.6275   -8.5007 C   0  0  0  0  0  0  0  0  0  0  0  0
   52.9202   -4.2959   -7.5727 C   0  0  0  0  0  0  0  0  0  0  0  0
   51.6614   -3.8358   -7.2059 C   0  0  0  0  0  0  0  0  0  0  0  0
   51.1522   -2.6799   -7.7762 C   0  0  0  0  0  0  0  0  0  0  0  0
   51.9186   -2.0418   -8.6784 N   0  0  0  0  0  0  0  0  0  0  0  0
   53.1567   -2.4834   -9.0466 C   0  0  0  0  0  0  0  0  0  0  0  0
   60.8754   -6.6073   -8.2254 C   0  0  0  0  0  0  0  0  0  0  0  0
   60.5043   -6.1904   -9.5792 N   0  0  0  0  0  0  0  0  0  0  0  0
   61.4598   -6.3709  -10.6396 C   0  0  0  0  0  0  0  0  0  0  0  0
   62.4750   -7.4326  -10.3465 C   0  0  0  0  0  0  0  0  0  0  0  0
   63.1155   -7.9851  -11.6340 C   0  0  0  0  0  0  0  0  0  0  0  0
   62.2994   -8.8467  -10.7122 C   0  0  0  0  0  0  0  0  0  0  0  0
 16 17  1  0  0  0
 17 18  1  0  0  0
 18 19  1  0  0  0
 19 20  1  0  0  0
 20 21  1  0  0  0
 17  1  1  0  0  0
  1  2  2  0  0  0
  2  3  1  0  0  0
  3  4  2  0  0  0
  4  5  1  0  0  0
  5  6  1  0  0  0
  6  7  2  0  0  0
  7  8  1  0  0  0
  8  9  2  0  0  0
  6 10  1  0  0  0
 10 11  2  0  0  0
 11 12  1  0  0  0
 12 13  2  0  0  0
 13 14  1  0  0  0
 14 15  2  0  0  0
 21 19  1  0  0  0
  9  1  1  0  0  0
 15 10  1  0  0  0
  8  4  1  0  0  0
M  END
> <minimizedAffinity>
-7.25134

> <CNNscore>
0.6442117095

> <CNNaffinity>
5.4433655739

> <CNN_VS>
3.5066797733

> <CNNaffinity_variance>
0.1373279691

$$$$
[H]c1nc([H])c(-c2oc3c([H])c([H])c(N(C([H])([H])[H])C([H])([H])C4([H])C([H])([H])C4([H])[H])c([H])c3c2[H])c([H])c1[H]


 21 24  0  0  0  0  0  0  0  0999 V2000
   57.4612   -5.1977   -8.8102 C   0  0  0  0  0  0  0  0  0  0  0  0
   57.4555   -5.6519   -7.5142 C   0  0  0  0  0  0  0  0  0  0  0  0
   56.3621   -5.5426   -6.6892 C   0  0  0  0  0  0  0  0  0  0  0  0
   55.2065   -4.9490   -7.1782 C   0  0  0  0  0  0  0  0  0  0  0  0
   54.0294   -4.6990   -6.6634 O   0  0  0  0  0  0  0  0  0  0  0  0
   53.2277   -4.1014   -7.5265 C   0  0  0  0  0  0  0  0  0  0  0  0
   53.9446   -3.9605   -8.6806 C   0  0  0  0  0  0  0  0  0  0  0  0
   55.1926   -4.4914   -8.4684 C   0  0  0  0  0  0  0  0  0  0  0  0
   56.3232   -4.6165   -9.2840 C   0  0  0  0  0  0  0  0  0  0  0  0
   51.8591   -3.6984   -7.2158 C   0  0  0  0  0  0  0  0  0  0  0  0
   51.0798   -4.3625   -6.2912 C   0  0  0  0  0  0  0  0  0  0  0  0
   49.7875   -3.9459   -5.9951 C   0  0  0  0  0  0  0  0  0  0  0  0
   49.2520   -2.8393   -6.6349 C   0  0  0  0  0  0  0  0  0  0  0  0
   50.0264   -2.2047   -7.5328 N   0  0  0  0  0  0  0  0  0  0  0  0
   51.2972   -2.6038   -7.8318 C   0  0  0  0  0  0  0  0  0  0  0  0
   58.5425   -4.9512  -11.0041 C   0  0  0  0  0  0  0  0  0  0  0  0
   58.6271   -5.3358   -9.5937 N   0  0  0  0  0  0  0  0  0  0  0  0
   59.8742   -5.8528   -9.0964 C   0  0  0  0  0  0  0  0  0  0  0  0
   60.7233   -6.4752  -10.1620 C   0  0  0  0  0  0  0  0  0  0  0  0
   61.3158   -7.8232   -9.7090 C   0  0  0  0  0  0  0  0  0  0  0  0
   62.1804   -6.6410  -10.0452 C   0  0  0  0  0  0  0  0  0  0  0  0
 16 17  1  0  0  0
 17 18  1  0  0  0
 18 19  1  0  0  0
 19 20  1  0  0  0
 20 21  1  0  0  0
 17  1  1  0  0  0
  1  2  2  0  0  0
  2  3  1  0  0  0
  3  4  2  0  0  0
  4  5  1  0  0  0
  5  6  1  0  0  0
  6  7  2  0  0  0
  7  8  1  0  0  0
  8  9  2  0  0  0
  6 10  1  0  0  0
 10 11  2  0  0  0
 11 12  1  0  0  0
 12 13  2  0  0  0
 13 14  1  0  0  0
 14 15  2  0  0  0
 21 19  1  0  0  0
  9  1  1  0  0  0
 15 10  1  0  0  0
  8  4  1  0  0  0
M  END
> <minimizedAffinity>
-7.04519

> <CNNscore>
0.4166163504

> <CNNaffinity>
5.6959972382

> <CNN_VS>
2.3730456829

> <CNNaffinity_variance>
0.0399537571

$$$$
[H]c1nc([H])c(-c2oc3c([H])c([H])c(N(C([H])([H])[H])C([H])([H])C4([H])C([H])([H])C4([H])[H])c([H])c3c2[H])c([H])c1[H]


 21 24  0  0  0  0  0  0  0  0999 V2000
   52.1532   -3.6266   -7.7076 C   0  0  0  0  0  0  0  0  0  0  0  0
   52.2018   -3.0434   -8.9499 C   0  0  0  0  0  0  0  0  0  0  0  0
   53.3113   -3.0998   -9.7587 C   0  0  0  0  0  0  0  0  0  0  0  0
   54.4382   -3.7747   -9.3095 C   0  0  0  0  0  0  0  0  0  0  0  0
   55.6207   -4.0035   -9.8216 O   0  0  0  0  0  0  0  0  0  0  0  0
   56.3858   -4.7077   -9.0070 C   0  0  0  0  0  0  0  0  0  0  0  0
   55.6361   -4.9494   -7.8912 C   0  0  0  0  0  0  0  0  0  0  0  0
   54.4080   -4.3639   -8.0741 C   0  0  0  0  0  0  0  0  0  0  0  0
   53.2627   -4.2881   -7.2731 C   0  0  0  0  0  0  0  0  0  0  0  0
   57.7576   -5.0982   -9.3197 C   0  0  0  0  0  0  0  0  0  0  0  0
   58.6266   -5.5895   -8.3675 C   0  0  0  0  0  0  0  0  0  0  0  0
   59.9207   -5.9767   -8.6938 C   0  0  0  0  0  0  0  0  0  0  0  0
   60.3665   -5.8731  -10.0019 C   0  0  0  0  0  0  0  0  0  0  0  0
   59.5054   -5.3923  -10.9162 N   0  0  0  0  0  0  0  0  0  0  0  0
   58.2319   -5.0092  -10.6083 C   0  0  0  0  0  0  0  0  0  0  0  0
   49.9800   -2.5340   -7.3512 C   0  0  0  0  0  0  0  0  0  0  0  0
   50.9805   -3.5168   -6.9298 N   0  0  0  0  0  0  0  0  0  0  0  0
   50.7269   -4.2894   -5.7429 C   0  0  0  0  0  0  0  0  0  0  0  0
   50.0735   -5.6077   -6.0239 C   0  0  0  0  0  0  0  0  0  0  0  0
   51.0245   -6.7889   -5.7522 C   0  0  0  0  0  0  0  0  0  0  0  0
   50.4806   -6.4977   -7.1223 C   0  0  0  0  0  0  0  0  0  0  0  0
 16 17  1  0  0  0
 17 18  1  0  0  0
 18 19  1  0  0  0
 19 20  1  0  0  0
 20 21  1  0  0  0
 17  1  1  0  0  0
  1  2  2  0  0  0
  2  3  1  0  0  0
  3  4  2  0  0  0
  4  5  1  0  0  0
  5  6  1  0  0  0
  6  7  2  0  0  0
  7  8  1  0  0  0
  8  9  2  0  0  0
  6 10  1  0  0  0
 10 11  2  0  0  0
 11 12  1  0  0  0
 12 13  2  0  0  0
 13 14  1  0  0  0
 14 15  2  0  0  0
 21 19  1  0  0  0
  9  1  1  0  0  0
 15 10  1  0  0  0
  8  4  1  0  0  0
M  END
> <minimizedAffinity>
-7.27860

> <CNNscore>
0.4071187079

> <CNNaffinity>
6.0752582550

> <CNN_VS>
2.4733512402

> <CNNaffinity_variance>
0.0738471597

$$$$
[H]c1nc([H])c(-c2oc3c([H])c([H])c(N(C([H])([H])[H])C([H])([H])C4([H])C([H])([H])C4([H])[H])c([H])c3c2[H])c([H])c1[H]


 21 24  0  0  0  0  0  0  0  0999 V2000
   50.8230   -3.6724   -6.4386 C   0  0  0  0  0  0  0  0  0  0  0  0
   50.6573   -2.6348   -7.3227 C   0  0  0  0  0  0  0  0  0  0  0  0
   51.5568   -2.3550   -8.3232 C   0  0  0  0  0  0  0  0  0  0  0  0
   52.6861   -3.1513   -8.4552 C   0  0  0  0  0  0  0  0  0  0  0  0
   53.7043   -3.1494   -9.2775 O   0  0  0  0  0  0  0  0  0  0  0  0
   54.5579   -4.1218   -9.0117 C   0  0  0  0  0  0  0  0  0  0  0  0
   54.0466   -4.7978   -7.9407 C   0  0  0  0  0  0  0  0  0  0  0  0
   52.8678   -4.1916   -7.5839 C   0  0  0  0  0  0  0  0  0  0  0  0
   51.9337   -4.4505   -6.5742 C   0  0  0  0  0  0  0  0  0  0  0  0
   55.7880   -4.3482   -9.7653 C   0  0  0  0  0  0  0  0  0  0  0  0
   56.9309   -4.8609   -9.1871 C   0  0  0  0  0  0  0  0  0  0  0  0
   58.0827   -5.0896   -9.9301 C   0  0  0  0  0  0  0  0  0  0  0  0
   58.1024   -4.8009  -11.2854 C   0  0  0  0  0  0  0  0  0  0  0  0
   56.9792   -4.3021  -11.8314 N   0  0  0  0  0  0  0  0  0  0  0  0
   55.8415   -4.0735  -11.1125 C   0  0  0  0  0  0  0  0  0  0  0  0
   48.8682   -2.8381   -5.2033 C   0  0  0  0  0  0  0  0  0  0  0  0
   49.8605   -3.8910   -5.4296 N   0  0  0  0  0  0  0  0  0  0  0  0
   49.8158   -5.0664   -4.6012 C   0  0  0  0  0  0  0  0  0  0  0  0
   50.5546   -4.9068   -3.3079 C   0  0  0  0  0  0  0  0  0  0  0  0
   51.7578   -5.8641   -3.2125 C   0  0  0  0  0  0  0  0  0  0  0  0
   50.5955   -5.9419   -2.2634 C   0  0  0  0  0  0  0  0  0  0  0  0
 16 17  1  0  0  0
 17 18  1  0  0  0
 18 19  1  0  0  0
 19 20  1  0  0  0
 20 21  1  0  0  0
 17  1  1  0  0  0
  1  2  2  0  0  0
  2  3  1  0  0  0
  3  4  2  0  0  0
  4  5  1  0  0  0
  5  6  1  0  0  0
  6  7  2  0  0  0
  7  8  1  0  0  0
  8  9  2  0  0  0
  6 10  1  0  0  0
 10 11  2  0  0  0
 11 12  1  0  0  0
 12 13  2  0  0  0
 13 14  1  0  0  0
 14 15  2  0  0  0
 21 19  1  0  0  0
  9  1  1  0  0  0
 15 10  1  0  0  0
  8  4  1  0  0  0
M  END
> <minimizedAffinity>
-9.22317

> <CNNscore>
0.3947677612

> <CNNaffinity>
6.1666045189

> <CNN_VS>
2.4343767166

> <CNNaffinity_variance>
0.1202001423

$$$$
[H]c1nc([H])c(-c2oc3c([H])c([H])c(N(C([H])([H])[H])C([H])([H])C4([H])C([H])([H])C4([H])[H])c([H])c3c2[H])c([H])c1[H]


 21 24  0  0  0  0  0  0  0  0999 V2000
   56.6283   -4.6792   -8.6804 C   0  0  0  0  0  0  0  0  0  0  0  0
   57.8388   -5.2855   -8.9101 C   0  0  0  0  0  0  0  0  0  0  0  0
   58.4257   -5.3353  -10.1516 C   0  0  0  0  0  0  0  0  0  0  0  0
   57.7743   -4.7490  -11.2281 C   0  0  0  0  0  0  0  0  0  0  0  0
   58.0562   -4.6280  -12.5004 O   0  0  0  0  0  0  0  0  0  0  0  0
   57.1136   -3.9762  -13.1572 C   0  0  0  0  0  0  0  0  0  0  0  0
   56.1581   -3.6540  -12.2359 C   0  0  0  0  0  0  0  0  0  0  0  0
   56.5670   -4.1384  -11.0183 C   0  0  0  0  0  0  0  0  0  0  0  0
   55.9945   -4.1050   -9.7416 C   0  0  0  0  0  0  0  0  0  0  0  0
   57.1644   -3.7065  -14.5914 C   0  0  0  0  0  0  0  0  0  0  0  0
   56.0754   -3.8810  -15.4203 C   0  0  0  0  0  0  0  0  0  0  0  0
   56.1413   -3.5953  -16.7786 C   0  0  0  0  0  0  0  0  0  0  0  0
   57.3213   -3.1235  -17.3315 C   0  0  0  0  0  0  0  0  0  0  0  0
   58.3720   -2.9595  -16.5082 N   0  0  0  0  0  0  0  0  0  0  0  0
   58.3196   -3.2361  -15.1724 C   0  0  0  0  0  0  0  0  0  0  0  0
   56.3927   -3.5339   -6.5179 C   0  0  0  0  0  0  0  0  0  0  0  0
   56.0836   -4.6779   -7.3782 N   0  0  0  0  0  0  0  0  0  0  0  0
   55.2716   -5.7389   -6.8446 C   0  0  0  0  0  0  0  0  0  0  0  0
   53.8654   -5.3160   -6.5489 C   0  0  0  0  0  0  0  0  0  0  0  0
   52.8372   -6.1575   -7.3286 C   0  0  0  0  0  0  0  0  0  0  0  0
   52.9848   -4.6770   -7.5390 C   0  0  0  0  0  0  0  0  0  0  0  0
 16 17  1  0  0  0
 17 18  1  0  0  0
 18 19  1  0  0  0
 19 20  1  0  0  0
 20 21  1  0  0  0
 17  1  1  0  0  0
  1  2  2  0  0  0
  2  3  1  0  0  0
  3  4  2  0  0  0
  4  5  1  0  0  0
  5  6  1  0  0  0
  6  7  2  0  0  0
  7  8  1  0  0  0
  8  9  2  0  0  0
  6 10  1  0  0  0
 10 11  2  0  0  0
 11 12  1  0  0  0
 12 13  2  0  0  0
 13 14  1  0  0  0
 14 15  2  0  0  0
 21 19  1  0  0  0
  9  1  1  0  0  0
 15 10  1  0  0  0
  8  4  1  0  0  0
M  END
> <minimizedAffinity>
-7.73572

> <CNNscore>
0.3930985630

> <CNNaffinity>
5.2510056496

> <CNN_VS>
2.0641627312

> <CNNaffinity_variance>
0.2943455279

$$$$
[H]c1nc([H])c(-c2oc3c([H])c([H])c(N(C([H])([H])[H])C([H])([H])C4([H])C([H])([H])C4([H])[H])c([H])c3c2[H])c([H])c1[H]


 21 24  0  0  0  0  0  0  0  0999 V2000
   55.4863   -4.9975   -7.3913 C   0  0  0  0  0  0  0  0  0  0  0  0
   56.8148   -5.3240   -7.2726 C   0  0  0  0  0  0  0  0  0  0  0  0
   57.7011   -5.2403   -8.3194 C   0  0  0  0  0  0  0  0  0  0  0  0
   57.2432   -4.8067   -9.5560 C   0  0  0  0  0  0  0  0  0  0  0  0
   57.8141   -4.6227  -10.7193 O   0  0  0  0  0  0  0  0  0  0  0  0
   56.9588   -4.1902  -11.6283 C   0  0  0  0  0  0  0  0  0  0  0  0
   55.7508   -4.0876  -10.9991 C   0  0  0  0  0  0  0  0  0  0  0  0
   55.9220   -4.4752   -9.6934 C   0  0  0  0  0  0  0  0  0  0  0  0
   55.0436   -4.5720   -8.6081 C   0  0  0  0  0  0  0  0  0  0  0  0
   57.3225   -3.9111  -13.0147 C   0  0  0  0  0  0  0  0  0  0  0  0
   56.3872   -3.8139  -14.0240 C   0  0  0  0  0  0  0  0  0  0  0  0
   56.7555   -3.5241  -15.3322 C   0  0  0  0  0  0  0  0  0  0  0  0
   58.0899   -3.3256  -15.6492 C   0  0  0  0  0  0  0  0  0  0  0  0
   58.9872   -3.4241  -14.6523 N   0  0  0  0  0  0  0  0  0  0  0  0
   58.6379   -3.7077  -13.3635 C   0  0  0  0  0  0  0  0  0  0  0  0
   53.1907   -5.1049   -6.5184 C   0  0  0  0  0  0  0  0  0  0  0  0
   54.6342   -5.1197   -6.2727 N   0  0  0  0  0  0  0  0  0  0  0  0
   55.0988   -5.2301   -4.9155 C   0  0  0  0  0  0  0  0  0  0  0  0
   54.8546   -6.5804   -4.3149 C   0  0  0  0  0  0  0  0  0  0  0  0
   56.1714   -7.3212   -4.0141 C   0  0  0  0  0  0  0  0  0  0  0  0
   55.1669   -7.8431   -5.0023 C   0  0  0  0  0  0  0  0  0  0  0  0
 16 17  1  0  0  0
 17 18  1  0  0  0
 18 19  1  0  0  0
 19 20  1  0  0  0
 20 21  1  0  0  0
 17  1  1  0  0  0
  1  2  2  0  0  0
  2  3  1  0  0  0
  3  4  2  0  0  0
  4  5  1  0  0  0
  5  6  1  0  0  0
  6  7  2  0  0  0
  7  8  1  0  0  0
  8  9  2  0  0  0
  6 10  1  0  0  0
 10 11  2  0  0  0
 11 12  1  0  0  0
 12 13  2  0  0  0
 13 14  1  0  0  0
 14 15  2  0  0  0
 21 19  1  0  0  0
  9  1  1  0  0  0
 15 10  1  0  0  0
  8  4  1  0  0  0
M  END
> <minimizedAffinity>
-7.14474

> <CNNscore>
0.3752135932

> <CNNaffinity>
5.2082071304

> <CNN_VS>
1.9541901350

> <CNNaffinity_variance>
0.2624449730

$$$$
[H]c1nc([H])c(-c2oc3c([H])c([H])c(N(C([H])([H])[H])C([H])([H])C4([H])C([H])([H])C4([H])[H])c([H])c3c2[H])c([H])c1[H]


 21 24  0  0  0  0  0  0  0  0999 V2000
   54.0520   -5.0169   -7.0660 C   0  0  0  0  0  0  0  0  0  0  0  0
   55.3241   -5.1127   -6.5576 C   0  0  0  0  0  0  0  0  0  0  0  0
   56.4505   -4.9522   -7.3281 C   0  0  0  0  0  0  0  0  0  0  0  0
   56.3071   -4.6800   -8.6817 C   0  0  0  0  0  0  0  0  0  0  0  0
   57.1535   -4.4801   -9.6598 O   0  0  0  0  0  0  0  0  0  0  0  0
   56.5401   -4.2532  -10.8075 C   0  0  0  0  0  0  0  0  0  0  0  0
   55.2012   -4.3099  -10.5437 C   0  0  0  0  0  0  0  0  0  0  0  0
   55.0466   -4.5793   -9.2065 C   0  0  0  0  0  0  0  0  0  0  0  0
   53.9184   -4.7490   -8.3957 C   0  0  0  0  0  0  0  0  0  0  0  0
   57.2401   -4.0079  -12.0653 C   0  0  0  0  0  0  0  0  0  0  0  0
   56.5771   -3.7708  -13.2516 C   0  0  0  0  0  0  0  0  0  0  0  0
   57.2653   -3.5166  -14.4318 C   0  0  0  0  0  0  0  0  0  0  0  0
   58.6510   -3.4977  -14.4362 C   0  0  0  0  0  0  0  0  0  0  0  0
   59.2799   -3.7308  -13.2705 N   0  0  0  0  0  0  0  0  0  0  0  0
   58.6153   -3.9811  -12.1047 C   0  0  0  0  0  0  0  0  0  0  0  0
   53.2083   -5.6871   -4.8564 C   0  0  0  0  0  0  0  0  0  0  0  0
   52.9429   -5.2050   -6.2135 N   0  0  0  0  0  0  0  0  0  0  0  0
   51.5779   -4.9774   -6.6069 C   0  0  0  0  0  0  0  0  0  0  0  0
   51.1391   -3.5568   -6.4251 C   0  0  0  0  0  0  0  0  0  0  0  0
   49.6582   -3.3610   -6.8019 C   0  0  0  0  0  0  0  0  0  0  0  0
   50.7704   -2.6720   -7.5412 C   0  0  0  0  0  0  0  0  0  0  0  0
 16 17  1  0  0  0
 17 18  1  0  0  0
 18 19  1  0  0  0
 19 20  1  0  0  0
 20 21  1  0  0  0
 17  1  1  0  0  0
  1  2  2  0  0  0
  2  3  1  0  0  0
  3  4  2  0  0  0
  4  5  1  0  0  0
  5  6  1  0  0  0
  6  7  2  0  0  0
  7  8  1  0  0  0
  8  9  2  0  0  0
  6 10  1  0  0  0
 10 11  2  0  0  0
 11 12  1  0  0  0
 12 13  2  0  0  0
 13 14  1  0  0  0
 14 15  2  0  0  0
 21 19  1  0  0  0
  9  1  1  0  0  0
 15 10  1  0  0  0
  8  4  1  0  0  0
M  END
> <minimizedAffinity>
-8.02048

> <CNNscore>
0.3492313921

> <CNNaffinity>
5.6473436356

> <CNN_VS>
1.9722297192

> <CNNaffinity_variance>
0.0979067236

$$$$
[H]c1nc([H])c(-c2oc3c([H])c([H])c(N(C([H])([H])[H])C([H])([H])C4([H])C([H])([H])C4([H])[H])c([H])c3c2[H])c([H])c1[H]


 21 24  0  0  0  0  0  0  0  0999 V2000
   51.8733   -4.0382   -7.0788 C   0  0  0  0  0  0  0  0  0  0  0  0
   52.5991   -4.9550   -6.3588 C   0  0  0  0  0  0  0  0  0  0  0  0
   53.8512   -5.3781   -6.7351 C   0  0  0  0  0  0  0  0  0  0  0  0
   54.4168   -4.8612   -7.8926 C   0  0  0  0  0  0  0  0  0  0  0  0
   55.5563   -5.0528   -8.5072 O   0  0  0  0  0  0  0  0  0  0  0  0
   55.6566   -4.3238   -9.6041 C   0  0  0  0  0  0  0  0  0  0  0  0
   54.4953   -3.6108   -9.6974 C   0  0  0  0  0  0  0  0  0  0  0  0
   53.7088   -3.9449   -8.6229 C   0  0  0  0  0  0  0  0  0  0  0  0
   52.4348   -3.5344   -8.2139 C   0  0  0  0  0  0  0  0  0  0  0  0
   56.8179   -4.3472  -10.4890 C   0  0  0  0  0  0  0  0  0  0  0  0
   56.8901   -3.5931  -11.6419 C   0  0  0  0  0  0  0  0  0  0  0  0
   58.0160   -3.6142  -12.4561 C   0  0  0  0  0  0  0  0  0  0  0  0
   59.1015   -4.4067  -12.1180 C   0  0  0  0  0  0  0  0  0  0  0  0
   59.0130   -5.1346  -10.9907 N   0  0  0  0  0  0  0  0  0  0  0  0
   57.9130   -5.1220  -10.1824 C   0  0  0  0  0  0  0  0  0  0  0  0
   50.0999   -2.3364   -7.0262 C   0  0  0  0  0  0  0  0  0  0  0  0
   50.5880   -3.6603   -6.6343 N   0  0  0  0  0  0  0  0  0  0  0  0
   49.7494   -4.4834   -5.8042 C   0  0  0  0  0  0  0  0  0  0  0  0
   49.6899   -4.0208   -4.3807 C   0  0  0  0  0  0  0  0  0  0  0  0
   50.2287   -5.0870   -3.4080 C   0  0  0  0  0  0  0  0  0  0  0  0
   48.8022   -4.6164   -3.3701 C   0  0  0  0  0  0  0  0  0  0  0  0
 16 17  1  0  0  0
 17 18  1  0  0  0
 18 19  1  0  0  0
 19 20  1  0  0  0
 20 21  1  0  0  0
 17  1  1  0  0  0
  1  2  2  0  0  0
  2  3  1  0  0  0
  3  4  2  0  0  0
  4  5  1  0  0  0
  5  6  1  0  0  0
  6  7  2  0  0  0
  7  8  1  0  0  0
  8  9  2  0  0  0
  6 10  1  0  0  0
 10 11  2  0  0  0
 11 12  1  0  0  0
 12 13  2  0  0  0
 13 14  1  0  0  0
 14 15  2  0  0  0
 21 19  1  0  0  0
  9  1  1  0  0  0
 15 10  1  0  0  0
  8  4  1  0  0  0
M  END
> <minimizedAffinity>
-8.57157

> <CNNscore>
0.3450504541

> <CNNaffinity>
5.9106907845

> <CNN_VS>
2.0394866467

> <CNNaffinity_variance>
0.0733376741

$$$$
[H]c1nc([H])c(-c2oc3c([H])c([H])c(N(C([H])([H])[H])C([H])([H])C4([H])C([H])([H])C4([H])[H])c([H])c3c2[H])c([H])c1[H]


 21 24  0  0  0  0  0  0  0  0999 V2000
   55.6596   -4.3600   -9.3273 C   0  0  0  0  0  0  0  0  0  0  0  0
   55.9272   -4.1979  -10.6644 C   0  0  0  0  0  0  0  0  0  0  0  0
   57.1344   -4.5305  -11.2304 C   0  0  0  0  0  0  0  0  0  0  0  0
   58.1344   -5.0552  -10.4232 C   0  0  0  0  0  0  0  0  0  0  0  0
   59.3589   -5.4600  -10.6463 O   0  0  0  0  0  0  0  0  0  0  0  0
   59.9474   -5.8895   -9.5445 C   0  0  0  0  0  0  0  0  0  0  0  0
   59.0302   -5.7515   -8.5418 C   0  0  0  0  0  0  0  0  0  0  0  0
   57.8857   -5.2256   -9.0878 C   0  0  0  0  0  0  0  0  0  0  0  0
   56.6457   -4.8762   -8.5407 C   0  0  0  0  0  0  0  0  0  0  0  0
   61.3187   -6.3893   -9.5008 C   0  0  0  0  0  0  0  0  0  0  0  0
   61.9644   -6.6880   -8.3188 C   0  0  0  0  0  0  0  0  0  0  0  0
   63.2621   -7.1848   -8.3036 C   0  0  0  0  0  0  0  0  0  0  0  0
   63.9397   -7.3907   -9.4948 C   0  0  0  0  0  0  0  0  0  0  0  0
   63.2943   -7.0941  -10.6368 N   0  0  0  0  0  0  0  0  0  0  0  0
   62.0197   -6.6062  -10.6648 C   0  0  0  0  0  0  0  0  0  0  0  0
   53.4979   -3.2539   -9.7108 C   0  0  0  0  0  0  0  0  0  0  0  0
   54.3983   -3.9849   -8.8167 N   0  0  0  0  0  0  0  0  0  0  0  0
   53.9618   -4.2541   -7.4725 C   0  0  0  0  0  0  0  0  0  0  0  0
   52.5806   -4.8295   -7.4033 C   0  0  0  0  0  0  0  0  0  0  0  0
   52.3304   -5.5626   -6.0716 C   0  0  0  0  0  0  0  0  0  0  0  0
   52.3025   -6.2741   -7.3949 C   0  0  0  0  0  0  0  0  0  0  0  0
 16 17  1  0  0  0
 17 18  1  0  0  0
 18 19  1  0  0  0
 19 20  1  0  0  0
 20 21  1  0  0  0
 17  1  1  0  0  0
  1  2  2  0  0  0
  2  3  1  0  0  0
  3  4  2  0  0  0
  4  5  1  0  0  0
  5  6  1  0  0  0
  6  7  2  0  0  0
  7  8  1  0  0  0
  8  9  2  0  0  0
  6 10  1  0  0  0
 10 11  2  0  0  0
 11 12  1  0  0  0
 12 13  2  0  0  0
 13 14  1  0  0  0
 14 15  2  0  0  0
 21 19  1  0  0  0
  9  1  1  0  0  0
 15 10  1  0  0  0
  8  4  1  0  0  0
M  END
> <minimizedAffinity>
-7.10097

> <CNNscore>
0.3390706778

> <CNNaffinity>
4.9967203140

> <CNN_VS>
1.6942412853

> <CNNaffinity_variance>
0.1767056882

$$$$
[H]c1nc(C(=O)N([H])c2nc(N3C([H])([H])C([H])([H])C([H])(N([H])C(=O)c4nc5c([H])c([H])c(F)c([H])c5n4[H])C([H])([H])C3([H])[H])c([H])c([H])c2[H])c([H])c([H])c1[H]


 37 41  0  0  0  0  0  0  0  0999 V2000
   57.5118   -5.4219   -8.0474 N   0  0  0  0  0  0  0  0  0  0  0  0
   57.0272   -4.0436   -8.0226 C   0  0  0  0  0  0  0  0  0  0  0  0
   56.8115   -3.6818   -6.5386 C   0  0  0  0  0  0  0  0  0  0  0  0
   55.6960   -4.5331   -6.0257 C   0  0  0  0  0  0  0  0  0  0  0  0
   55.8674   -5.9648   -6.3372 C   0  0  0  0  0  0  0  0  0  0  0  0
   57.1928   -6.3102   -6.9571 C   0  0  0  0  0  0  0  0  0  0  0  0
   59.8669   -5.4267  -10.8638 C   0  0  0  0  0  0  0  0  0  0  0  0
   59.8051   -6.7381  -11.3124 C   0  0  0  0  0  0  0  0  0  0  0  0
   58.9711   -7.6004  -10.6528 C   0  0  0  0  0  0  0  0  0  0  0  0
   58.2137   -7.1917   -9.5792 C   0  0  0  0  0  0  0  0  0  0  0  0
   58.2824   -5.8604   -9.1313 C   0  0  0  0  0  0  0  0  0  0  0  0
   59.1189   -5.0599   -9.8182 N   0  0  0  0  0  0  0  0  0  0  0  0
   61.2561   -5.9728  -13.1670 O   0  0  0  0  0  0  0  0  0  0  0  0
   61.3923   -4.8252  -12.6854 C   0  0  0  0  0  0  0  0  0  0  0  0
   60.7059   -4.4739  -11.5009 N   0  0  0  0  0  0  0  0  0  0  0  0
   60.7933   -3.5119  -11.0591 H   0  0  0  0  0  0  0  0  0  0  0  0
   62.2762   -3.8629  -13.3778 C   0  0  0  0  0  0  0  0  0  0  0  0
   63.3499   -4.2447  -14.1300 C   0  0  0  0  0  0  0  0  0  0  0  0
   64.1164   -3.2493  -14.7356 C   0  0  0  0  0  0  0  0  0  0  0  0
   63.8016   -1.9177  -14.5809 C   0  0  0  0  0  0  0  0  0  0  0  0
   62.7026   -1.5792  -13.8078 C   0  0  0  0  0  0  0  0  0  0  0  0
   61.9773   -2.5547  -13.2331 N   0  0  0  0  0  0  0  0  0  0  0  0
   54.3931   -4.0124   -6.4253 N   0  0  0  0  0  0  0  0  0  0  0  0
   53.2326   -4.2937   -5.6918 C   0  0  0  0  0  0  0  0  0  0  0  0
   53.3161   -5.0123   -4.6654 O   0  0  0  0  0  0  0  0  0  0  0  0
   54.3566   -3.4224   -7.2766 H   0  0  0  0  0  0  0  0  0  0  0  0
   51.9248   -3.7507   -6.1208 C   0  0  0  0  0  0  0  0  0  0  0  0
   51.7016   -2.6081   -6.7873 N   0  0  0  0  0  0  0  0  0  0  0  0
   50.3762   -2.4297   -7.0094 C   0  0  0  0  0  0  0  0  0  0  0  0
   49.6347   -1.4464   -7.6346 C   0  0  0  0  0  0  0  0  0  0  0  0
   48.2655   -1.5771   -7.6871 C   0  0  0  0  0  0  0  0  0  0  0  0
   47.6474   -2.6872   -7.1156 C   0  0  0  0  0  0  0  0  0  0  0  0
   46.2837   -2.7935   -7.1818 F   0  0  0  0  0  0  0  0  0  0  0  0
   48.3841   -3.6714   -6.4904 C   0  0  0  0  0  0  0  0  0  0  0  0
   49.7676   -3.5270   -6.4443 C   0  0  0  0  0  0  0  0  0  0  0  0
   50.7236   -4.3171   -5.9101 N   0  0  0  0  0  0  0  0  0  0  0  0
   50.5758   -5.2300   -5.4074 H   0  0  0  0  0  0  0  0  0  0  0  0
 13 14  2  0  0  0
 14 15  1  0  0  0
 15  7  1  0  0  0
  7  8  2  0  0  0
  8  9  1  0  0  0
  9 10  2  0  0  0
 10 11  1  0  0  0
 11 12  2  0  0  0
 11  1  1  0  0  0
  1  2  1  0  0  0
  2  3  1  0  0  0
  3  4  1  0  0  0
  4  5  1  0  0  0
  5  6  1  0  0  0
  4 23  1  0  0  0
 23 24  1  0  0  0
 24 25  2  0  0  0
 24 27  1  0  0  0
 27 28  2  0  0  0
 28 29  1  0  0  0
 29 30  2  0  0  0
 30 31  1  0  0  0
 31 32  2  0  0  0
 32 33  1  0  0  0
 32 34  1  0  0  0
 34 35  2  0  0  0
 35 36  1  0  0  0
 14 17  1  0  0  0
 17 18  2  0  0  0
 18 19  1  0  0  0
 19 20  2  0  0  0
 20 21  1  0  0  0
 21 22  2  0  0  0
 12  7  1  0  0  0
  6  1  1  0  0  0
 36 27  1  0  0  0
 22 17  1  0  0  0
 35 29  1  0  0  0
 15 16  1  0  0  0
 23 26  1  0  0  0
 36 37  1  0  0  0
M  END
> <minimizedAffinity>
25.30325

> <CNNscore>
0.4114230871

> <CNNaffinity>
5.9245605469

> <CNN_VS>
2.4375009537

> <CNNaffinity_variance>
1.3482654095

$$$$
[H]c1nc(C(=O)N([H])c2nc(N3C([H])([H])C([H])([H])C([H])(N([H])C(=O)c4nc5c([H])c([H])c(F)c([H])c5n4[H])C([H])([H])C3([H])[H])c([H])c([H])c2[H])c([H])c([H])c1[H]


 37 41  0  0  0  0  0  0  0  0999 V2000
   62.3896   -6.8428  -11.9894 N   0  0  0  0  0  0  0  0  0  0  0  0
   61.8843   -5.8103  -11.0874 C   0  0  0  0  0  0  0  0  0  0  0  0
   61.9310   -6.4089   -9.6664 C   0  0  0  0  0  0  0  0  0  0  0  0
   60.9472   -7.5323   -9.6191 C   0  0  0  0  0  0  0  0  0  0  0  0
   61.0941   -8.4807  -10.7394 C   0  0  0  0  0  0  0  0  0  0  0  0
   62.2940   -8.2309  -11.6101 C   0  0  0  0  0  0  0  0  0  0  0  0
   63.5897   -4.7824  -14.7811 C   0  0  0  0  0  0  0  0  0  0  0  0
   64.0902   -5.7269  -15.6656 C   0  0  0  0  0  0  0  0  0  0  0  0
   64.0173   -7.0447  -15.3020 C   0  0  0  0  0  0  0  0  0  0  0  0
   63.4677   -7.4323  -14.1016 C   0  0  0  0  0  0  0  0  0  0  0  0
   62.9626   -6.4682  -13.2111 C   0  0  0  0  0  0  0  0  0  0  0  0
   63.0618   -5.1903  -13.6224 N   0  0  0  0  0  0  0  0  0  0  0  0
   65.7362   -3.1805  -14.1823 O   0  0  0  0  0  0  0  0  0  0  0  0
   64.7658   -2.6324  -14.7526 C   0  0  0  0  0  0  0  0  0  0  0  0
   63.6264   -3.3968  -15.0916 N   0  0  0  0  0  0  0  0  0  0  0  0
   62.7819   -2.9717  -15.5757 H   0  0  0  0  0  0  0  0  0  0  0  0
   64.8424   -1.1873  -15.0570 C   0  0  0  0  0  0  0  0  0  0  0  0
   65.4483   -0.6923  -16.1760 C   0  0  0  0  0  0  0  0  0  0  0  0
   65.4637    0.6902  -16.3591 C   0  0  0  0  0  0  0  0  0  0  0  0
   64.8847    1.5349  -15.4385 C   0  0  0  0  0  0  0  0  0  0  0  0
   64.2819    0.9856  -14.3182 C   0  0  0  0  0  0  0  0  0  0  0  0
   64.2784   -0.3498  -14.1615 N   0  0  0  0  0  0  0  0  0  0  0  0
   59.5814   -7.0459   -9.4563 N   0  0  0  0  0  0  0  0  0  0  0  0
   59.2936   -5.9025   -8.6989 C   0  0  0  0  0  0  0  0  0  0  0  0
   60.2346   -5.2813   -8.1461 O   0  0  0  0  0  0  0  0  0  0  0  0
   58.8266   -7.5797   -9.9247 H   0  0  0  0  0  0  0  0  0  0  0  0
   57.8985   -5.4321   -8.5524 C   0  0  0  0  0  0  0  0  0  0  0  0
   57.2378   -4.5917   -9.3627 N   0  0  0  0  0  0  0  0  0  0  0  0
   55.9747   -4.3834   -8.9164 C   0  0  0  0  0  0  0  0  0  0  0  0
   54.9118   -3.6279   -9.3709 C   0  0  0  0  0  0  0  0  0  0  0  0
   53.7332   -3.6411   -8.6600 C   0  0  0  0  0  0  0  0  0  0  0  0
   53.6249   -4.4078   -7.5018 C   0  0  0  0  0  0  0  0  0  0  0  0
   52.4412   -4.4039   -6.8130 F   0  0  0  0  0  0  0  0  0  0  0  0
   54.6839   -5.1637   -7.0444 C   0  0  0  0  0  0  0  0  0  0  0  0
   55.8698   -5.1414   -7.7725 C   0  0  0  0  0  0  0  0  0  0  0  0
   57.0471   -5.7703   -7.5681 N   0  0  0  0  0  0  0  0  0  0  0  0
   57.2819   -6.4224   -6.7758 H   0  0  0  0  0  0  0  0  0  0  0  0
 13 14  2  0  0  0
 14 15  1  0  0  0
 15  7  1  0  0  0
  7  8  2  0  0  0
  8  9  1  0  0  0
  9 10  2  0  0  0
 10 11  1  0  0  0
 11 12  2  0  0  0
 11  1  1  0  0  0
  1  2  1  0  0  0
  2  3  1  0  0  0
  3  4  1  0  0  0
  4  5  1  0  0  0
  5  6  1  0  0  0
  4 23  1  0  0  0
 23 24  1  0  0  0
 24 25  2  0  0  0
 24 27  1  0  0  0
 27 28  2  0  0  0
 28 29  1  0  0  0
 29 30  2  0  0  0
 30 31  1  0  0  0
 31 32  2  0  0  0
 32 33  1  0  0  0
 32 34  1  0  0  0
 34 35  2  0  0  0
 35 36  1  0  0  0
 14 17  1  0  0  0
 17 18  2  0  0  0
 18 19  1  0  0  0
 19 20  2  0  0  0
 20 21  1  0  0  0
 21 22  2  0  0  0
 12  7  1  0  0  0
  6  1  1  0  0  0
 36 27  1  0  0  0
 22 17  1  0  0  0
 35 29  1  0  0  0
 15 16  1  0  0  0
 23 26  1  0  0  0
 36 37  1  0  0  0
M  END
> <minimizedAffinity>
-4.61411

> <CNNscore>
0.3231956065

> <CNNaffinity>
5.6212701797

> <CNN_VS>
1.8167698383

> <CNNaffinity_variance>
0.3987262547

$$$$
[H]c1nc(C(=O)N([H])c2nc(N3C([H])([H])C([H])([H])C([H])(N([H])C(=O)c4nc5c([H])c([H])c(F)c([H])c5n4[H])C([H])([H])C3([H])[H])c([H])c([H])c2[H])c([H])c([H])c1[H]


 37 41  0  0  0  0  0  0  0  0999 V2000
   62.7053   -7.3513  -11.9235 N   0  0  0  0  0  0  0  0  0  0  0  0
   62.1984   -6.2118  -11.1621 C   0  0  0  0  0  0  0  0  0  0  0  0
   62.2397   -6.6245   -9.6762 C   0  0  0  0  0  0  0  0  0  0  0  0
   61.2544   -7.7318   -9.4894 C   0  0  0  0  0  0  0  0  0  0  0  0
   61.4038   -8.8154  -10.4793 C   0  0  0  0  0  0  0  0  0  0  0  0
   62.6067   -8.6795  -11.3707 C   0  0  0  0  0  0  0  0  0  0  0  0
   64.4250   -7.9564  -15.1102 C   0  0  0  0  0  0  0  0  0  0  0  0
   64.4551   -6.6946  -15.6863 C   0  0  0  0  0  0  0  0  0  0  0  0
   63.8899   -5.6605  -14.9897 C   0  0  0  0  0  0  0  0  0  0  0  0
   63.3085   -5.8535  -13.7576 C   0  0  0  0  0  0  0  0  0  0  0  0
   63.2826   -7.1359  -13.1810 C   0  0  0  0  0  0  0  0  0  0  0  0
   63.8528   -8.1120  -13.9119 N   0  0  0  0  0  0  0  0  0  0  0  0
   62.9141  -10.0008  -16.1447 O   0  0  0  0  0  0  0  0  0  0  0  0
   64.1553  -10.0937  -16.2790 C   0  0  0  0  0  0  0  0  0  0  0  0
   64.9954   -9.0768  -15.7713 N   0  0  0  0  0  0  0  0  0  0  0  0
   66.0528   -9.1162  -15.8637 H   0  0  0  0  0  0  0  0  0  0  0  0
   64.7098  -11.2766  -16.9719 C   0  0  0  0  0  0  0  0  0  0  0  0
   65.2653  -11.2184  -18.2179 C   0  0  0  0  0  0  0  0  0  0  0  0
   65.7544  -12.3991  -18.7761 C   0  0  0  0  0  0  0  0  0  0  0  0
   65.6805  -13.5920  -18.0921 C   0  0  0  0  0  0  0  0  0  0  0  0
   65.1077  -13.6011  -16.8303 C   0  0  0  0  0  0  0  0  0  0  0  0
   64.6426  -12.4514  -16.3109 N   0  0  0  0  0  0  0  0  0  0  0  0
   59.8887   -7.2276   -9.3945 N   0  0  0  0  0  0  0  0  0  0  0  0
   59.5931   -6.0244   -8.7396 C   0  0  0  0  0  0  0  0  0  0  0  0
   60.5270   -5.3641   -8.2211 O   0  0  0  0  0  0  0  0  0  0  0  0
   59.1399   -7.7948   -9.8325 H   0  0  0  0  0  0  0  0  0  0  0  0
   58.1983   -5.5373   -8.6602 C   0  0  0  0  0  0  0  0  0  0  0  0
   57.5390   -4.8155   -9.5788 N   0  0  0  0  0  0  0  0  0  0  0  0
   56.2758   -4.5470   -9.1663 C   0  0  0  0  0  0  0  0  0  0  0  0
   55.2138   -3.8602   -9.7211 C   0  0  0  0  0  0  0  0  0  0  0  0
   54.0347   -3.7749   -9.0160 C   0  0  0  0  0  0  0  0  0  0  0  0
   53.9249   -4.3752   -7.7636 C   0  0  0  0  0  0  0  0  0  0  0  0
   52.7407   -4.2759   -7.0829 F   0  0  0  0  0  0  0  0  0  0  0  0
   54.9829   -5.0621   -7.2060 C   0  0  0  0  0  0  0  0  0  0  0  0
   56.1693   -5.1408   -7.9293 C   0  0  0  0  0  0  0  0  0  0  0  0
   57.3459   -5.7366   -7.6395 N   0  0  0  0  0  0  0  0  0  0  0  0
   57.5796   -6.2739   -6.7650 H   0  0  0  0  0  0  0  0  0  0  0  0
 13 14  2  0  0  0
 14 15  1  0  0  0
 15  7  1  0  0  0
  7  8  2  0  0  0
  8  9  1  0  0  0
  9 10  2  0  0  0
 10 11  1  0  0  0
 11 12  2  0  0  0
 11  1  1  0  0  0
  1  2  1  0  0  0
  2  3  1  0  0  0
  3  4  1  0  0  0
  4  5  1  0  0  0
  5  6  1  0  0  0
  4 23  1  0  0  0
 23 24  1  0  0  0
 24 25  2  0  0  0
 24 27  1  0  0  0
 27 28  2  0  0  0
 28 29  1  0  0  0
 29 30  2  0  0  0
 30 31  1  0  0  0
 31 32  2  0  0  0
 32 33  1  0  0  0
 32 34  1  0  0  0
 34 35  2  0  0  0
 35 36  1  0  0  0
 14 17  1  0  0  0
 17 18  2  0  0  0
 18 19  1  0  0  0
 19 20  2  0  0  0
 20 21  1  0  0  0
 21 22  2  0  0  0
 12  7  1  0  0  0
  6  1  1  0  0  0
 36 27  1  0  0  0
 22 17  1  0  0  0
 35 29  1  0  0  0
 15 16  1  0  0  0
 23 26  1  0  0  0
 36 37  1  0  0  0
M  END
> <minimizedAffinity>
-5.36630

> <CNNscore>
0.2771769166

> <CNNaffinity>
5.3743028641

> <CNN_VS>
1.4896327257

> <CNNaffinity_variance>
0.1885732859

$$$$
[H]c1nc(C(=O)N([H])c2nc(N3C([H])([H])C([H])([H])C([H])(N([H])C(=O)c4nc5c([H])c([H])c(F)c([H])c5n4[H])C([H])([H])C3([H])[H])c([H])c([H])c2[H])c([H])c([H])c1[H]


 37 41  0  0  0  0  0  0  0  0999 V2000
   59.4890   -5.9690   -9.6089 N   0  0  0  0  0  0  0  0  0  0  0  0
   59.7406   -6.1772   -8.1847 C   0  0  0  0  0  0  0  0  0  0  0  0
   61.2666   -6.3420   -8.0290 C   0  0  0  0  0  0  0  0  0  0  0  0
   61.6547   -7.6095   -8.7183 C   0  0  0  0  0  0  0  0  0  0  0  0
   61.1163   -7.7142  -10.0878 C   0  0  0  0  0  0  0  0  0  0  0  0
   60.4287   -6.4714  -10.5805 C   0  0  0  0  0  0  0  0  0  0  0  0
   56.1141   -4.5239   -9.5800 C   0  0  0  0  0  0  0  0  0  0  0  0
   56.0280   -3.9223  -10.8272 C   0  0  0  0  0  0  0  0  0  0  0  0
   57.1138   -4.0117  -11.6562 C   0  0  0  0  0  0  0  0  0  0  0  0
   58.2586   -4.6740  -11.2763 C   0  0  0  0  0  0  0  0  0  0  0  0
   58.3371   -5.2811  -10.0102 C   0  0  0  0  0  0  0  0  0  0  0  0
   57.2398   -5.1600   -9.2399 N   0  0  0  0  0  0  0  0  0  0  0  0
   53.7526   -3.2453  -10.1463 O   0  0  0  0  0  0  0  0  0  0  0  0
   53.8393   -3.7989   -9.0268 C   0  0  0  0  0  0  0  0  0  0  0  0
   55.0263   -4.4768   -8.6678 N   0  0  0  0  0  0  0  0  0  0  0  0
   55.1417   -4.9597   -7.7287 H   0  0  0  0  0  0  0  0  0  0  0  0
   52.6851   -3.7257   -8.1051 C   0  0  0  0  0  0  0  0  0  0  0  0
   51.7409   -2.7415   -8.1696 C   0  0  0  0  0  0  0  0  0  0  0  0
   50.6963   -2.7703   -7.2460 C   0  0  0  0  0  0  0  0  0  0  0  0
   50.6169   -3.7624   -6.2944 C   0  0  0  0  0  0  0  0  0  0  0  0
   51.5990   -4.7396   -6.2682 C   0  0  0  0  0  0  0  0  0  0  0  0
   52.5971   -4.6930   -7.1680 N   0  0  0  0  0  0  0  0  0  0  0  0
   61.3635   -8.7801   -7.8978 N   0  0  0  0  0  0  0  0  0  0  0  0
   62.3613   -9.7007   -7.5501 C   0  0  0  0  0  0  0  0  0  0  0  0
   63.5350   -9.5137   -7.9554 O   0  0  0  0  0  0  0  0  0  0  0  0
   60.3857   -8.9068   -7.5784 H   0  0  0  0  0  0  0  0  0  0  0  0
   62.0364  -10.8784   -6.7155 C   0  0  0  0  0  0  0  0  0  0  0  0
   60.8264  -11.2437   -6.2662 N   0  0  0  0  0  0  0  0  0  0  0  0
   60.9077  -12.3777   -5.5277 C   0  0  0  0  0  0  0  0  0  0  0  0
   59.9806  -13.1513   -4.8573 C   0  0  0  0  0  0  0  0  0  0  0  0
   60.4103  -14.2740   -4.1869 C   0  0  0  0  0  0  0  0  0  0  0  0
   61.7610  -14.6156   -4.1908 C   0  0  0  0  0  0  0  0  0  0  0  0
   62.1625  -15.7379   -3.5164 F   0  0  0  0  0  0  0  0  0  0  0  0
   62.6900  -13.8459   -4.8590 C   0  0  0  0  0  0  0  0  0  0  0  0
   62.2423  -12.7134   -5.5327 C   0  0  0  0  0  0  0  0  0  0  0  0
   62.9111  -11.7918   -6.2586 N   0  0  0  0  0  0  0  0  0  0  0  0
   63.9463  -11.7720   -6.4486 H   0  0  0  0  0  0  0  0  0  0  0  0
 13 14  2  0  0  0
 14 15  1  0  0  0
 15  7  1  0  0  0
  7  8  2  0  0  0
  8  9  1  0  0  0
  9 10  2  0  0  0
 10 11  1  0  0  0
 11 12  2  0  0  0
 11  1  1  0  0  0
  1  2  1  0  0  0
  2  3  1  0  0  0
  3  4  1  0  0  0
  4  5  1  0  0  0
  5  6  1  0  0  0
  4 23  1  0  0  0
 23 24  1  0  0  0
 24 25  2  0  0  0
 24 27  1  0  0  0
 27 28  2  0  0  0
 28 29  1  0  0  0
 29 30  2  0  0  0
 30 31  1  0  0  0
 31 32  2  0  0  0
 32 33  1  0  0  0
 32 34  1  0  0  0
 34 35  2  0  0  0
 35 36  1  0  0  0
 14 17  1  0  0  0
 17 18  2  0  0  0
 18 19  1  0  0  0
 19 20  2  0  0  0
 20 21  1  0  0  0
 21 22  2  0  0  0
 12  7  1  0  0  0
  6  1  1  0  0  0
 36 27  1  0  0  0
 22 17  1  0  0  0
 35 29  1  0  0  0
 15 16  1  0  0  0
 23 26  1  0  0  0
 36 37  1  0  0  0
M  END
> <minimizedAffinity>
-7.64744

> <CNNscore>
0.1720347255

> <CNNaffinity>
5.8961324692

> <CNN_VS>
1.0143395662

> <CNNaffinity_variance>
0.3281232119

$$$$
[H]c1nc(C(=O)N([H])c2nc(N3C([H])([H])C([H])([H])C([H])(N([H])C(=O)c4nc5c([H])c([H])c(F)c([H])c5n4[H])C([H])([H])C3([H])[H])c([H])c([H])c2[H])c([H])c([H])c1[H]


 37 41  0  0  0  0  0  0  0  0999 V2000
   63.0107   -7.4547  -11.6274 N   0  0  0  0  0  0  0  0  0  0  0  0
   62.4721   -6.3204  -10.8802 C   0  0  0  0  0  0  0  0  0  0  0  0
   62.3256   -6.7891   -9.4177 C   0  0  0  0  0  0  0  0  0  0  0  0
   61.2766   -7.8526   -9.3893 C   0  0  0  0  0  0  0  0  0  0  0  0
   61.4889   -8.9050  -10.4010 C   0  0  0  0  0  0  0  0  0  0  0  0
   62.7904   -8.7959  -11.1456 C   0  0  0  0  0  0  0  0  0  0  0  0
   63.8835   -6.3233  -15.0093 C   0  0  0  0  0  0  0  0  0  0  0  0
   65.1858   -6.7781  -15.1577 C   0  0  0  0  0  0  0  0  0  0  0  0
   65.7490   -7.4566  -14.1104 C   0  0  0  0  0  0  0  0  0  0  0  0
   65.0562   -7.6863  -12.9440 C   0  0  0  0  0  0  0  0  0  0  0  0
   63.7364   -7.2218  -12.8022 C   0  0  0  0  0  0  0  0  0  0  0  0
   63.2366   -6.5621  -13.8639 N   0  0  0  0  0  0  0  0  0  0  0  0
   62.6509   -3.9018  -14.6227 O   0  0  0  0  0  0  0  0  0  0  0  0
   62.6166   -4.3729  -15.7821 C   0  0  0  0  0  0  0  0  0  0  0  0
   63.2316   -5.6159  -16.0544 N   0  0  0  0  0  0  0  0  0  0  0  0
   63.2259   -6.0512  -17.0232 H   0  0  0  0  0  0  0  0  0  0  0  0
   61.9265   -3.6063  -16.8419 C   0  0  0  0  0  0  0  0  0  0  0  0
   62.5903   -2.8979  -17.8020 C   0  0  0  0  0  0  0  0  0  0  0  0
   61.8357   -2.2088  -18.7511 C   0  0  0  0  0  0  0  0  0  0  0  0
   60.4593   -2.2401  -18.7230 C   0  0  0  0  0  0  0  0  0  0  0  0
   59.8305   -2.9726  -17.7289 C   0  0  0  0  0  0  0  0  0  0  0  0
   60.5772   -3.6296  -16.8241 N   0  0  0  0  0  0  0  0  0  0  0  0
   59.9331   -7.2855   -9.4266 N   0  0  0  0  0  0  0  0  0  0  0  0
   59.6402   -6.0493   -8.8349 C   0  0  0  0  0  0  0  0  0  0  0  0
   60.5570   -5.4143   -8.2576 O   0  0  0  0  0  0  0  0  0  0  0  0
   59.1981   -7.8330   -9.9104 H   0  0  0  0  0  0  0  0  0  0  0  0
   58.2681   -5.4985   -8.8896 C   0  0  0  0  0  0  0  0  0  0  0  0
   57.6288   -5.0229   -9.9688 N   0  0  0  0  0  0  0  0  0  0  0  0
   56.3829   -4.5983   -9.6439 C   0  0  0  0  0  0  0  0  0  0  0  0
   55.3442   -4.0408  -10.3633 C   0  0  0  0  0  0  0  0  0  0  0  0
   54.1782   -3.7173   -9.7072 C   0  0  0  0  0  0  0  0  0  0  0  0
   54.0581   -3.9525   -8.3393 C   0  0  0  0  0  0  0  0  0  0  0  0
   52.8873   -3.6219   -7.7105 F   0  0  0  0  0  0  0  0  0  0  0  0
   55.0929   -4.5091   -7.6172 C   0  0  0  0  0  0  0  0  0  0  0  0
   56.2663   -4.8315   -8.2926 C   0  0  0  0  0  0  0  0  0  0  0  0
   57.4203   -5.3780   -7.8529 N   0  0  0  0  0  0  0  0  0  0  0  0
   57.6415   -5.6694   -6.8659 H   0  0  0  0  0  0  0  0  0  0  0  0
 13 14  2  0  0  0
 14 15  1  0  0  0
 15  7  1  0  0  0
  7  8  2  0  0  0
  8  9  1  0  0  0
  9 10  2  0  0  0
 10 11  1  0  0  0
 11 12  2  0  0  0
 11  1  1  0  0  0
  1  2  1  0  0  0
  2  3  1  0  0  0
  3  4  1  0  0  0
  4  5  1  0  0  0
  5  6  1  0  0  0
  4 23  1  0  0  0
 23 24  1  0  0  0
 24 25  2  0  0  0
 24 27  1  0  0  0
 27 28  2  0  0  0
 28 29  1  0  0  0
 29 30  2  0  0  0
 30 31  1  0  0  0
 31 32  2  0  0  0
 32 33  1  0  0  0
 32 34  1  0  0  0
 34 35  2  0  0  0
 35 36  1  0  0  0
 14 17  1  0  0  0
 17 18  2  0  0  0
 18 19  1  0  0  0
 19 20  2  0  0  0
 20 21  1  0  0  0
 21 22  2  0  0  0
 12  7  1  0  0  0
  6  1  1  0  0  0
 36 27  1  0  0  0
 22 17  1  0  0  0
 35 29  1  0  0  0
 15 16  1  0  0  0
 23 26  1  0  0  0
 36 37  1  0  0  0
M  END
> <minimizedAffinity>
-6.36773

> <CNNscore>
0.1552108824

> <CNNaffinity>
5.2717466354

> <CNN_VS>
0.8182324767

> <CNNaffinity_variance>
0.2696859539

$$$$
[H]c1nc(C(=O)N([H])c2nc(N3C([H])([H])C([H])([H])C([H])(N([H])C(=O)c4nc5c([H])c([H])c(F)c([H])c5n4[H])C([H])([H])C3([H])[H])c([H])c([H])c2[H])c([H])c([H])c1[H]


 37 41  0  0  0  0  0  0  0  0999 V2000
   60.1383   -6.5661   -9.3926 N   0  0  0  0  0  0  0  0  0  0  0  0
   61.1484   -6.1953   -8.4040 C   0  0  0  0  0  0  0  0  0  0  0  0
   62.4940   -6.7384   -8.9279 C   0  0  0  0  0  0  0  0  0  0  0  0
   62.4132   -8.2301   -8.9131 C   0  0  0  0  0  0  0  0  0  0  0  0
   61.1945   -8.7523   -9.5600 C   0  0  0  0  0  0  0  0  0  0  0  0
   60.3603   -7.7068  -10.2464 C   0  0  0  0  0  0  0  0  0  0  0  0
   57.3393   -4.6715  -10.8263 C   0  0  0  0  0  0  0  0  0  0  0  0
   56.6370   -4.2645   -9.7012 C   0  0  0  0  0  0  0  0  0  0  0  0
   57.1190   -4.6405   -8.4762 C   0  0  0  0  0  0  0  0  0  0  0  0
   58.2616   -5.3969   -8.3521 C   0  0  0  0  0  0  0  0  0  0  0  0
   58.9675   -5.8050   -9.4979 C   0  0  0  0  0  0  0  0  0  0  0  0
   58.4461   -5.4058  -10.6731 N   0  0  0  0  0  0  0  0  0  0  0  0
   59.0765   -4.1609  -12.8888 O   0  0  0  0  0  0  0  0  0  0  0  0
   57.8547   -4.0660  -13.1445 C   0  0  0  0  0  0  0  0  0  0  0  0
   56.9027   -4.3158  -12.1303 N   0  0  0  0  0  0  0  0  0  0  0  0
   55.8571   -4.2465  -12.3045 H   0  0  0  0  0  0  0  0  0  0  0  0
   57.4411   -3.6916  -14.5141 C   0  0  0  0  0  0  0  0  0  0  0  0
   56.1390   -3.6897  -14.9253 C   0  0  0  0  0  0  0  0  0  0  0  0
   55.8654   -3.3215  -16.2423 C   0  0  0  0  0  0  0  0  0  0  0  0
   56.8782   -2.9693  -17.1062 C   0  0  0  0  0  0  0  0  0  0  0  0
   58.1841   -2.9867  -16.6431 C   0  0  0  0  0  0  0  0  0  0  0  0
   58.4254   -3.3447  -15.3697 N   0  0  0  0  0  0  0  0  0  0  0  0
   62.6256   -8.7681   -7.5738 N   0  0  0  0  0  0  0  0  0  0  0  0
   63.4743   -9.8599   -7.3462 C   0  0  0  0  0  0  0  0  0  0  0  0
   64.0662  -10.3886   -8.3193 O   0  0  0  0  0  0  0  0  0  0  0  0
   62.1235   -8.3102   -6.7913 H   0  0  0  0  0  0  0  0  0  0  0  0
   63.6712  -10.3832   -5.9763 C   0  0  0  0  0  0  0  0  0  0  0  0
   64.8263  -10.7725   -5.4163 N   0  0  0  0  0  0  0  0  0  0  0  0
   64.6271  -11.1983   -4.1447 C   0  0  0  0  0  0  0  0  0  0  0  0
   65.4604  -11.6877   -3.1580 C   0  0  0  0  0  0  0  0  0  0  0  0
   64.9187  -12.0369   -1.9418 C   0  0  0  0  0  0  0  0  0  0  0  0
   63.5506  -11.8952   -1.7200 C   0  0  0  0  0  0  0  0  0  0  0  0
   63.0368  -12.2495   -0.5010 F   0  0  0  0  0  0  0  0  0  0  0  0
   62.7150  -11.4068   -2.7025 C   0  0  0  0  0  0  0  0  0  0  0  0
   63.2755  -11.0574   -3.9276 C   0  0  0  0  0  0  0  0  0  0  0  0
   62.7125  -10.5616   -5.0504 N   0  0  0  0  0  0  0  0  0  0  0  0
   61.6936  -10.3429   -5.1987 H   0  0  0  0  0  0  0  0  0  0  0  0
 13 14  2  0  0  0
 14 15  1  0  0  0
 15  7  1  0  0  0
  7  8  2  0  0  0
  8  9  1  0  0  0
  9 10  2  0  0  0
 10 11  1  0  0  0
 11 12  2  0  0  0
 11  1  1  0  0  0
  1  2  1  0  0  0
  2  3  1  0  0  0
  3  4  1  0  0  0
  4  5  1  0  0  0
  5  6  1  0  0  0
  4 23  1  0  0  0
 23 24  1  0  0  0
 24 25  2  0  0  0
 24 27  1  0  0  0
 27 28  2  0  0  0
 28 29  1  0  0  0
 29 30  2  0  0  0
 30 31  1  0  0  0
 31 32  2  0  0  0
 32 33  1  0  0  0
 32 34  1  0  0  0
 34 35  2  0  0  0
 35 36  1  0  0  0
 14 17  1  0  0  0
 17 18  2  0  0  0
 18 19  1  0  0  0
 19 20  2  0  0  0
 20 21  1  0  0  0
 21 22  2  0  0  0
 12  7  1  0  0  0
  6  1  1  0  0  0
 36 27  1  0  0  0
 22 17  1  0  0  0
 35 29  1  0  0  0
 15 16  1  0  0  0
 23 26  1  0  0  0
 36 37  1  0  0  0
M  END
> <minimizedAffinity>
-6.43297

> <CNNscore>
0.1483470500

> <CNNaffinity>
5.1613569260

> <CNN_VS>
0.7656720877

> <CNNaffinity_variance>
0.3008237481

$$$$
[H]c1nc(C(=O)N([H])c2nc(N3C([H])([H])C([H])([H])C([H])(N([H])C(=O)c4nc5c([H])c([H])c(F)c([H])c5n4[H])C([H])([H])C3([H])[H])c([H])c([H])c2[H])c([H])c([H])c1[H]


 37 41  0  0  0  0  0  0  0  0999 V2000
   59.8651   -6.3678   -9.5021 N   0  0  0  0  0  0  0  0  0  0  0  0
   60.3084   -6.3270   -8.1104 C   0  0  0  0  0  0  0  0  0  0  0  0
   61.7850   -6.7737   -8.1078 C   0  0  0  0  0  0  0  0  0  0  0  0
   61.8216   -8.2084   -8.5229 C   0  0  0  0  0  0  0  0  0  0  0  0
   61.0535   -8.4768   -9.7536 C   0  0  0  0  0  0  0  0  0  0  0  0
   60.5260   -7.2456  -10.4361 C   0  0  0  0  0  0  0  0  0  0  0  0
   57.7783   -4.1343  -11.5357 C   0  0  0  0  0  0  0  0  0  0  0  0
   56.6877   -3.8992  -10.7110 C   0  0  0  0  0  0  0  0  0  0  0  0
   56.6737   -4.5027   -9.4823 C   0  0  0  0  0  0  0  0  0  0  0  0
   57.7019   -5.3177   -9.0674 C   0  0  0  0  0  0  0  0  0  0  0  0
   58.8037   -5.5504   -9.9098 C   0  0  0  0  0  0  0  0  0  0  0  0
   58.7615   -4.9309  -11.1043 N   0  0  0  0  0  0  0  0  0  0  0  0
   56.4483   -5.1218  -13.7240 O   0  0  0  0  0  0  0  0  0  0  0  0
   57.1524   -4.1026  -13.9051 C   0  0  0  0  0  0  0  0  0  0  0  0
   57.8649   -3.5389  -12.8224 N   0  0  0  0  0  0  0  0  0  0  0  0
   58.4735   -2.6753  -12.9323 H   0  0  0  0  0  0  0  0  0  0  0  0
   57.2176   -3.5139  -15.2601 C   0  0  0  0  0  0  0  0  0  0  0  0
   56.1800   -3.5659  -16.1462 C   0  0  0  0  0  0  0  0  0  0  0  0
   56.3547   -2.9791  -17.3992 C   0  0  0  0  0  0  0  0  0  0  0  0
   57.5395   -2.3636  -17.7362 C   0  0  0  0  0  0  0  0  0  0  0  0
   58.5640   -2.3363  -16.8035 C   0  0  0  0  0  0  0  0  0  0  0  0
   58.3743   -2.9081  -15.6014 N   0  0  0  0  0  0  0  0  0  0  0  0
   61.4670   -9.0973   -7.4218 N   0  0  0  0  0  0  0  0  0  0  0  0
   62.1905  -10.2688   -7.1605 C   0  0  0  0  0  0  0  0  0  0  0  0
   63.1678  -10.5610   -7.8928 O   0  0  0  0  0  0  0  0  0  0  0  0
   60.6558   -8.8289   -6.8352 H   0  0  0  0  0  0  0  0  0  0  0  0
   61.8081  -11.1505   -6.0356 C   0  0  0  0  0  0  0  0  0  0  0  0
   61.7688  -10.8310   -4.7333 N   0  0  0  0  0  0  0  0  0  0  0  0
   61.3741  -11.8922   -3.9875 C   0  0  0  0  0  0  0  0  0  0  0  0
   61.1737  -12.0897   -2.6354 C   0  0  0  0  0  0  0  0  0  0  0  0
   60.7575  -13.3265   -2.1977 C   0  0  0  0  0  0  0  0  0  0  0  0
   60.5447  -14.3558   -3.1121 C   0  0  0  0  0  0  0  0  0  0  0  0
   60.1303  -15.5768   -2.6507 F   0  0  0  0  0  0  0  0  0  0  0  0
   60.7435  -14.1628   -4.4632 C   0  0  0  0  0  0  0  0  0  0  0  0
   61.1645  -12.9076   -4.8925 C   0  0  0  0  0  0  0  0  0  0  0  0
   61.4330  -12.4384   -6.1299 N   0  0  0  0  0  0  0  0  0  0  0  0
   61.3664  -12.9744   -7.0333 H   0  0  0  0  0  0  0  0  0  0  0  0
 13 14  2  0  0  0
 14 15  1  0  0  0
 15  7  1  0  0  0
  7  8  2  0  0  0
  8  9  1  0  0  0
  9 10  2  0  0  0
 10 11  1  0  0  0
 11 12  2  0  0  0
 11  1  1  0  0  0
  1  2  1  0  0  0
  2  3  1  0  0  0
  3  4  1  0  0  0
  4  5  1  0  0  0
  5  6  1  0  0  0
  4 23  1  0  0  0
 23 24  1  0  0  0
 24 25  2  0  0  0
 24 27  1  0  0  0
 27 28  2  0  0  0
 28 29  1  0  0  0
 29 30  2  0  0  0
 30 31  1  0  0  0
 31 32  2  0  0  0
 32 33  1  0  0  0
 32 34  1  0  0  0
 34 35  2  0  0  0
 35 36  1  0  0  0
 14 17  1  0  0  0
 17 18  2  0  0  0
 18 19  1  0  0  0
 19 20  2  0  0  0
 20 21  1  0  0  0
 21 22  2  0  0  0
 12  7  1  0  0  0
  6  1  1  0  0  0
 36 27  1  0  0  0
 22 17  1  0  0  0
 35 29  1  0  0  0
 15 16  1  0  0  0
 23 26  1  0  0  0
 36 37  1  0  0  0
M  END
> <minimizedAffinity>
-6.61264

> <CNNscore>
0.1446675658

> <CNNaffinity>
5.1616640091

> <CNN_VS>
0.7467253804

> <CNNaffinity_variance>
0.1878790557

$$$$
[H]c1nc(C(=O)N([H])c2nc(N3C([H])([H])C([H])([H])C([H])(N([H])C(=O)c4nc5c([H])c([H])c(F)c([H])c5n4[H])C([H])([H])C3([H])[H])c([H])c([H])c2[H])c([H])c([H])c1[H]


 37 41  0  0  0  0  0  0  0  0999 V2000
   56.0997   -6.9030   -2.2108 N   0  0  0  0  0  0  0  0  0  0  0  0
   56.5336   -5.6353   -2.7935 C   0  0  0  0  0  0  0  0  0  0  0  0
   55.2583   -4.9201   -3.2856 C   0  0  0  0  0  0  0  0  0  0  0  0
   54.6922   -5.7303   -4.4059 C   0  0  0  0  0  0  0  0  0  0  0  0
   54.5602   -7.1626   -4.0779 C   0  0  0  0  0  0  0  0  0  0  0  0
   54.8609   -7.5007   -2.6443 C   0  0  0  0  0  0  0  0  0  0  0  0
   59.0280   -7.9145   -0.2409 C   0  0  0  0  0  0  0  0  0  0  0  0
   58.4809   -8.7722    0.7025 C   0  0  0  0  0  0  0  0  0  0  0  0
   57.1303   -8.9915    0.6597 C   0  0  0  0  0  0  0  0  0  0  0  0
   56.3311   -8.3872   -0.2835 C   0  0  0  0  0  0  0  0  0  0  0  0
   56.8941   -7.5194   -1.2361 C   0  0  0  0  0  0  0  0  0  0  0  0
   58.2255   -7.3426   -1.1444 N   0  0  0  0  0  0  0  0  0  0  0  0
   60.6772   -8.7536   -2.2679 O   0  0  0  0  0  0  0  0  0  0  0  0
   61.2109   -8.1066   -1.3384 C   0  0  0  0  0  0  0  0  0  0  0  0
   60.4220   -7.6423   -0.2617 N   0  0  0  0  0  0  0  0  0  0  0  0
   60.8343   -7.0901    0.5466 H   0  0  0  0  0  0  0  0  0  0  0  0
   62.6654   -7.8456   -1.3964 C   0  0  0  0  0  0  0  0  0  0  0  0
   63.4182   -8.0653   -2.5142 C   0  0  0  0  0  0  0  0  0  0  0  0
   64.7833   -7.7863   -2.4534 C   0  0  0  0  0  0  0  0  0  0  0  0
   65.3587   -7.3028   -1.2996 C   0  0  0  0  0  0  0  0  0  0  0  0
   64.5538   -7.0963   -0.1907 C   0  0  0  0  0  0  0  0  0  0  0  0
   63.2402   -7.3717   -0.2711 N   0  0  0  0  0  0  0  0  0  0  0  0
   55.4048   -5.4928   -5.6564 N   0  0  0  0  0  0  0  0  0  0  0  0
   54.7327   -5.1049   -6.8234 C   0  0  0  0  0  0  0  0  0  0  0  0
   53.4858   -4.9586   -6.7919 O   0  0  0  0  0  0  0  0  0  0  0  0
   56.4332   -5.6214   -5.6506 H   0  0  0  0  0  0  0  0  0  0  0  0
   55.4823   -4.8699   -8.0771 C   0  0  0  0  0  0  0  0  0  0  0  0
   55.0139   -4.3283   -9.2114 N   0  0  0  0  0  0  0  0  0  0  0  0
   55.9849   -4.2703  -10.1558 C   0  0  0  0  0  0  0  0  0  0  0  0
   56.0263   -3.8141  -11.4587 C   0  0  0  0  0  0  0  0  0  0  0  0
   57.2083   -3.9037  -12.1582 C   0  0  0  0  0  0  0  0  0  0  0  0
   58.3389   -4.4475  -11.5525 C   0  0  0  0  0  0  0  0  0  0  0  0
   59.5027   -4.5249  -12.2702 F   0  0  0  0  0  0  0  0  0  0  0  0
   58.3019   -4.9041  -10.2516 C   0  0  0  0  0  0  0  0  0  0  0  0
   57.1005   -4.8078   -9.5555 C   0  0  0  0  0  0  0  0  0  0  0  0
   56.7758   -5.1658   -8.2946 N   0  0  0  0  0  0  0  0  0  0  0  0
   57.4140   -5.6054   -7.5822 H   0  0  0  0  0  0  0  0  0  0  0  0
 13 14  2  0  0  0
 14 15  1  0  0  0
 15  7  1  0  0  0
  7  8  2  0  0  0
  8  9  1  0  0  0
  9 10  2  0  0  0
 10 11  1  0  0  0
 11 12  2  0  0  0
 11  1  1  0  0  0
  1  2  1  0  0  0
  2  3  1  0  0  0
  3  4  1  0  0  0
  4  5  1  0  0  0
  5  6  1  0  0  0
  4 23  1  0  0  0
 23 24  1  0  0  0
 24 25  2  0  0  0
 24 27  1  0  0  0
 27 28  2  0  0  0
 28 29  1  0  0  0
 29 30  2  0  0  0
 30 31  1  0  0  0
 31 32  2  0  0  0
 32 33  1  0  0  0
 32 34  1  0  0  0
 34 35  2  0  0  0
 35 36  1  0  0  0
 14 17  1  0  0  0
 17 18  2  0  0  0
 18 19  1  0  0  0
 19 20  2  0  0  0
 20 21  1  0  0  0
 21 22  2  0  0  0
 12  7  1  0  0  0
  6  1  1  0  0  0
 36 27  1  0  0  0
 22 17  1  0  0  0
 35 29  1  0  0  0
 15 16  1  0  0  0
 23 26  1  0  0  0
 36 37  1  0  0  0
M  END
> <minimizedAffinity>
-7.17039

> <CNNscore>
0.1418296844

> <CNNaffinity>
5.9163041115

> <CNN_VS>
0.8391075730

> <CNNaffinity_variance>
0.2242763042

$$$$
[H]c1nc(C(=O)N([H])c2nc(N3C([H])([H])C([H])([H])C([H])(N([H])C(=O)c4nc5c([H])c([H])c(F)c([H])c5n4[H])C([H])([H])C3([H])[H])c([H])c([H])c2[H])c([H])c([H])c1[H]


 37 41  0  0  0  0  0  0  0  0999 V2000
   57.0628   -5.4122   -7.2659 N   0  0  0  0  0  0  0  0  0  0  0  0
   56.4740   -4.2211   -6.6579 C   0  0  0  0  0  0  0  0  0  0  0  0
   56.4036   -4.4929   -5.1410 C   0  0  0  0  0  0  0  0  0  0  0  0
   55.4282   -5.6043   -4.9280 C   0  0  0  0  0  0  0  0  0  0  0  0
   55.6780   -6.7707   -5.7961 C   0  0  0  0  0  0  0  0  0  0  0  0
   56.9460   -6.6856   -6.5993 C   0  0  0  0  0  0  0  0  0  0  0  0
   59.6236   -5.7684   -9.8725 C   0  0  0  0  0  0  0  0  0  0  0  0
   59.0852   -5.0505  -10.9307 C   0  0  0  0  0  0  0  0  0  0  0  0
   57.8633   -4.4610  -10.7470 C   0  0  0  0  0  0  0  0  0  0  0  0
   57.1820   -4.5695   -9.5565 C   0  0  0  0  0  0  0  0  0  0  0  0
   57.7352   -5.2989   -8.4890 C   0  0  0  0  0  0  0  0  0  0  0  0
   58.9374   -5.8556   -8.7284 N   0  0  0  0  0  0  0  0  0  0  0  0
   61.2766   -5.4107  -12.0340 O   0  0  0  0  0  0  0  0  0  0  0  0
   61.6876   -6.1734  -11.1304 C   0  0  0  0  0  0  0  0  0  0  0  0
   60.8889   -6.4035   -9.9873 N   0  0  0  0  0  0  0  0  0  0  0  0
   61.1995   -7.0428   -9.1979 H   0  0  0  0  0  0  0  0  0  0  0  0
   63.0098   -6.8167  -11.2885 C   0  0  0  0  0  0  0  0  0  0  0  0
   63.5199   -7.1841  -12.5006 C   0  0  0  0  0  0  0  0  0  0  0  0
   64.7771   -7.7870  -12.5300 C   0  0  0  0  0  0  0  0  0  0  0  0
   65.4866   -8.0070  -11.3704 C   0  0  0  0  0  0  0  0  0  0  0  0
   64.9273   -7.6171  -10.1641 C   0  0  0  0  0  0  0  0  0  0  0  0
   63.7140   -7.0375  -10.1585 N   0  0  0  0  0  0  0  0  0  0  0  0
   54.0497   -5.1306   -4.9886 N   0  0  0  0  0  0  0  0  0  0  0  0
   53.0714   -5.6000   -4.1017 C   0  0  0  0  0  0  0  0  0  0  0  0
   53.3891   -6.4498   -3.2336 O   0  0  0  0  0  0  0  0  0  0  0  0
   53.8185   -4.4292   -5.7157 H   0  0  0  0  0  0  0  0  0  0  0  0
   51.6813   -5.1003   -4.1864 C   0  0  0  0  0  0  0  0  0  0  0  0
   51.1960   -4.1992   -5.0536 N   0  0  0  0  0  0  0  0  0  0  0  0
   49.8759   -3.9811   -4.8351 C   0  0  0  0  0  0  0  0  0  0  0  0
   48.9281   -3.1731   -5.4319 C   0  0  0  0  0  0  0  0  0  0  0  0
   47.6385   -3.1928   -4.9513 C   0  0  0  0  0  0  0  0  0  0  0  0
   47.3051   -4.0181   -3.8795 C   0  0  0  0  0  0  0  0  0  0  0  0
   46.0148   -4.0193   -3.4205 F   0  0  0  0  0  0  0  0  0  0  0  0
   48.2485   -4.8265   -3.2806 C   0  0  0  0  0  0  0  0  0  0  0  0
   49.5487   -4.7970   -3.7763 C   0  0  0  0  0  0  0  0  0  0  0  0
   50.6572   -5.4681   -3.3965 N   0  0  0  0  0  0  0  0  0  0  0  0
   50.7306   -6.1685   -2.6141 H   0  0  0  0  0  0  0  0  0  0  0  0
 13 14  2  0  0  0
 14 15  1  0  0  0
 15  7  1  0  0  0
  7  8  2  0  0  0
  8  9  1  0  0  0
  9 10  2  0  0  0
 10 11  1  0  0  0
 11 12  2  0  0  0
 11  1  1  0  0  0
  1  2  1  0  0  0
  2  3  1  0  0  0
  3  4  1  0  0  0
  4  5  1  0  0  0
  5  6  1  0  0  0
  4 23  1  0  0  0
 23 24  1  0  0  0
 24 25  2  0  0  0
 24 27  1  0  0  0
 27 28  2  0  0  0
 28 29  1  0  0  0
 29 30  2  0  0  0
 30 31  1  0  0  0
 31 32  2  0  0  0
 32 33  1  0  0  0
 32 34  1  0  0  0
 34 35  2  0  0  0
 35 36  1  0  0  0
 14 17  1  0  0  0
 17 18  2  0  0  0
 18 19  1  0  0  0
 19 20  2  0  0  0
 20 21  1  0  0  0
 21 22  2  0  0  0
 12  7  1  0  0  0
  6  1  1  0  0  0
 36 27  1  0  0  0
 22 17  1  0  0  0
 35 29  1  0  0  0
 15 16  1  0  0  0
 23 26  1  0  0  0
 36 37  1  0  0  0
M  END
> <minimizedAffinity>
-3.39356

> <CNNscore>
0.1407603472

> <CNNaffinity>
5.8585004807

> <CNN_VS>
0.8246445656

> <CNNaffinity_variance>
0.4321118295

$$$$
[H]c1c([H])c([H])c(C([H])([H])N([H])C(=O)N([H])c2c([H])c([H])c3c([H])c([H])c([H])c([H])c3c2[H])c([H])c1[H]


 23 25  0  0  0  0  0  0  0  0999 V2000
   52.5179   -4.8552   -7.9828 O   0  0  0  0  0  0  0  0  0  0  0  0
   52.6009   -3.6251   -8.0860 C   0  0  0  0  0  0  0  0  0  0  0  0
   51.3672   -2.8856   -8.0331 N   0  0  0  0  0  0  0  0  0  0  0  0
   53.8248   -2.9611   -8.2472 N   0  0  0  0  0  0  0  0  0  0  0  0
   51.4413   -1.8486   -8.1228 H   0  0  0  0  0  0  0  0  0  0  0  0
   53.8032   -1.8936   -8.3318 H   0  0  0  0  0  0  0  0  0  0  0  0
   55.0729   -3.6166   -8.2939 C   0  0  0  0  0  0  0  0  0  0  0  0
   55.7447   -4.1610   -7.2339 C   0  0  0  0  0  0  0  0  0  0  0  0
   56.9684   -4.8013   -7.4611 C   0  0  0  0  0  0  0  0  0  0  0  0
   57.5309   -4.9073   -8.7149 C   0  0  0  0  0  0  0  0  0  0  0  0
   58.7436   -5.5455   -8.9241 C   0  0  0  0  0  0  0  0  0  0  0  0
   59.3201   -5.6617  -10.1708 C   0  0  0  0  0  0  0  0  0  0  0  0
   58.6341   -5.1077  -11.2338 C   0  0  0  0  0  0  0  0  0  0  0  0
   57.4288   -4.4710  -11.0402 C   0  0  0  0  0  0  0  0  0  0  0  0
   56.8544   -4.3574   -9.7852 C   0  0  0  0  0  0  0  0  0  0  0  0
   55.6621   -3.7340   -9.5657 C   0  0  0  0  0  0  0  0  0  0  0  0
   50.0922   -3.5485   -7.8652 C   0  0  0  0  0  0  0  0  0  0  0  0
   49.7860   -3.7211   -6.4302 C   0  0  0  0  0  0  0  0  0  0  0  0
   50.2164   -4.8438   -5.7683 C   0  0  0  0  0  0  0  0  0  0  0  0
   49.9558   -5.0459   -4.4168 C   0  0  0  0  0  0  0  0  0  0  0  0
   49.2446   -4.0719   -3.7597 C   0  0  0  0  0  0  0  0  0  0  0  0
   48.8122   -2.9540   -4.4057 C   0  0  0  0  0  0  0  0  0  0  0  0
   49.0780   -2.7583   -5.7634 C   0  0  0  0  0  0  0  0  0  0  0  0
  1  2  2  0  0  0
  2  3  1  0  0  0
  3 17  1  0  0  0
 17 18  1  0  0  0
 18 19  2  0  0  0
 19 20  1  0  0  0
 20 21  2  0  0  0
 21 22  1  0  0  0
 22 23  2  0  0  0
  2  4  1  0  0  0
  4  7  1  0  0  0
  7  8  2  0  0  0
  8  9  1  0  0  0
  9 10  2  0  0  0
 10 11  1  0  0  0
 11 12  2  0  0  0
 12 13  1  0  0  0
 13 14  2  0  0  0
 14 15  1  0  0  0
 15 16  2  0  0  0
 23 18  1  0  0  0
 16  7  1  0  0  0
 15 10  1  0  0  0
  3  5  1  0  0  0
  4  6  1  0  0  0
M  END
> <minimizedAffinity>
-9.42713

> <CNNscore>
0.5947500467

> <CNNaffinity>
5.6578888893

> <CNN_VS>
3.3650295734

> <CNNaffinity_variance>
0.0614403412

$$$$
[H]c1c([H])c([H])c(C([H])([H])N([H])C(=O)N([H])c2c([H])c([H])c3c([H])c([H])c([H])c([H])c3c2[H])c([H])c1[H]


 23 25  0  0  0  0  0  0  0  0999 V2000
   56.0865   -4.9709  -10.2229 O   0  0  0  0  0  0  0  0  0  0  0  0
   55.9769   -3.7444  -10.3436 C   0  0  0  0  0  0  0  0  0  0  0  0
   56.8511   -3.1057  -11.2919 N   0  0  0  0  0  0  0  0  0  0  0  0
   55.0539   -2.9919   -9.6042 N   0  0  0  0  0  0  0  0  0  0  0  0
   56.7571   -2.0711  -11.3890 H   0  0  0  0  0  0  0  0  0  0  0  0
   55.0295   -1.9340   -9.7701 H   0  0  0  0  0  0  0  0  0  0  0  0
   54.1572   -3.5491   -8.6688 C   0  0  0  0  0  0  0  0  0  0  0  0
   54.3839   -4.6418   -7.8776 C   0  0  0  0  0  0  0  0  0  0  0  0
   53.3901   -5.0489   -6.9799 C   0  0  0  0  0  0  0  0  0  0  0  0
   52.1840   -4.3931   -6.8580 C   0  0  0  0  0  0  0  0  0  0  0  0
   51.2098   -4.8080   -5.9633 C   0  0  0  0  0  0  0  0  0  0  0  0
   49.9988   -4.1637   -5.8274 C   0  0  0  0  0  0  0  0  0  0  0  0
   49.7799   -3.0625   -6.6316 C   0  0  0  0  0  0  0  0  0  0  0  0
   50.7388   -2.6396   -7.5245 C   0  0  0  0  0  0  0  0  0  0  0  0
   51.9538   -3.2909   -7.6566 C   0  0  0  0  0  0  0  0  0  0  0  0
   52.9209   -2.8927   -8.5309 C   0  0  0  0  0  0  0  0  0  0  0  0
   57.8101   -3.8616  -12.0680 C   0  0  0  0  0  0  0  0  0  0  0  0
   57.3493   -3.9984  -13.4650 C   0  0  0  0  0  0  0  0  0  0  0  0
   57.9889   -3.3128  -14.4674 C   0  0  0  0  0  0  0  0  0  0  0  0
   57.5930   -3.4152  -15.7971 C   0  0  0  0  0  0  0  0  0  0  0  0
   56.5275   -4.2358  -16.0758 C   0  0  0  0  0  0  0  0  0  0  0  0
   55.8851   -4.9209  -15.0899 C   0  0  0  0  0  0  0  0  0  0  0  0
   56.2888   -4.8127  -13.7566 C   0  0  0  0  0  0  0  0  0  0  0  0
  1  2  2  0  0  0
  2  3  1  0  0  0
  3 17  1  0  0  0
 17 18  1  0  0  0
 18 19  2  0  0  0
 19 20  1  0  0  0
 20 21  2  0  0  0
 21 22  1  0  0  0
 22 23  2  0  0  0
  2  4  1  0  0  0
  4  7  1  0  0  0
  7  8  2  0  0  0
  8  9  1  0  0  0
  9 10  2  0  0  0
 10 11  1  0  0  0
 11 12  2  0  0  0
 12 13  1  0  0  0
 13 14  2  0  0  0
 14 15  1  0  0  0
 15 16  2  0  0  0
 23 18  1  0  0  0
 16  7  1  0  0  0
 15 10  1  0  0  0
  3  5  1  0  0  0
  4  6  1  0  0  0
M  END
> <minimizedAffinity>
-9.72814

> <CNNscore>
0.5531277061

> <CNNaffinity>
5.4139261246

> <CNN_VS>
2.9945924282

> <CNNaffinity_variance>
0.0233734231

$$$$
[H]c1c([H])c([H])c(C([H])([H])N([H])C(=O)N([H])c2c([H])c([H])c3c([H])c([H])c([H])c([H])c3c2[H])c([H])c1[H]


 23 25  0  0  0  0  0  0  0  0999 V2000
   53.4193   -2.8965   -9.0329 O   0  0  0  0  0  0  0  0  0  0  0  0
   53.4290   -3.9170   -8.3333 C   0  0  0  0  0  0  0  0  0  0  0  0
   52.2827   -4.1363   -7.4911 N   0  0  0  0  0  0  0  0  0  0  0  0
   54.4927   -4.8298   -8.3432 N   0  0  0  0  0  0  0  0  0  0  0  0
   52.2958   -4.9968   -6.9011 H   0  0  0  0  0  0  0  0  0  0  0  0
   54.4189   -5.6851   -7.7027 H   0  0  0  0  0  0  0  0  0  0  0  0
   55.6404   -4.6886   -9.1510 C   0  0  0  0  0  0  0  0  0  0  0  0
   56.9370   -4.8849   -8.7615 C   0  0  0  0  0  0  0  0  0  0  0  0
   57.9609   -4.7255   -9.7024 C   0  0  0  0  0  0  0  0  0  0  0  0
   57.7185   -4.3761  -11.0134 C   0  0  0  0  0  0  0  0  0  0  0  0
   58.7435   -4.2229  -11.9340 C   0  0  0  0  0  0  0  0  0  0  0  0
   58.5194   -3.8750  -13.2489 C   0  0  0  0  0  0  0  0  0  0  0  0
   57.2070   -3.6782  -13.6312 C   0  0  0  0  0  0  0  0  0  0  0  0
   56.1793   -3.8269  -12.7272 C   0  0  0  0  0  0  0  0  0  0  0  0
   56.4106   -4.1767  -11.4073 C   0  0  0  0  0  0  0  0  0  0  0  0
   55.4121   -4.3321  -10.4923 C   0  0  0  0  0  0  0  0  0  0  0  0
   51.1719   -3.2096   -7.4655 C   0  0  0  0  0  0  0  0  0  0  0  0
   50.3410   -3.4340   -6.2646 C   0  0  0  0  0  0  0  0  0  0  0  0
   50.5915   -4.5095   -5.4496 C   0  0  0  0  0  0  0  0  0  0  0  0
   49.8386   -4.7570   -4.3062 C   0  0  0  0  0  0  0  0  0  0  0  0
   48.8238   -3.8777   -4.0176 C   0  0  0  0  0  0  0  0  0  0  0  0
   48.5657   -2.8073   -4.8186 C   0  0  0  0  0  0  0  0  0  0  0  0
   49.3266   -2.5656   -5.9653 C   0  0  0  0  0  0  0  0  0  0  0  0
  1  2  2  0  0  0
  2  3  1  0  0  0
  3 17  1  0  0  0
 17 18  1  0  0  0
 18 19  2  0  0  0
 19 20  1  0  0  0
 20 21  2  0  0  0
 21 22  1  0  0  0
 22 23  2  0  0  0
  2  4  1  0  0  0
  4  7  1  0  0  0
  7  8  2  0  0  0
  8  9  1  0  0  0
  9 10  2  0  0  0
 10 11  1  0  0  0
 11 12  2  0  0  0
 12 13  1  0  0  0
 13 14  2  0  0  0
 14 15  1  0  0  0
 15 16  2  0  0  0
 23 18  1  0  0  0
 16  7  1  0  0  0
 15 10  1  0  0  0
  3  5  1  0  0  0
  4  6  1  0  0  0
M  END
> <minimizedAffinity>
-9.76412

> <CNNscore>
0.4212518632

> <CNNaffinity>
5.2892808914

> <CNN_VS>
2.2281193733

> <CNNaffinity_variance>
0.0585304499

$$$$
[H]c1c([H])c([H])c(C([H])([H])N([H])C(=O)N([H])c2c([H])c([H])c3c([H])c([H])c([H])c([H])c3c2[H])c([H])c1[H]


 23 25  0  0  0  0  0  0  0  0999 V2000
   56.6211   -5.0386  -10.1717 O   0  0  0  0  0  0  0  0  0  0  0  0
   56.2628   -3.8672  -10.3460 C   0  0  0  0  0  0  0  0  0  0  0  0
   56.9128   -3.1413  -11.4053 N   0  0  0  0  0  0  0  0  0  0  0  0
   55.2742   -3.2551   -9.5632 N   0  0  0  0  0  0  0  0  0  0  0  0
   56.6093   -2.1532  -11.5475 H   0  0  0  0  0  0  0  0  0  0  0  0
   55.0285   -2.2357   -9.7816 H   0  0  0  0  0  0  0  0  0  0  0  0
   54.5852   -3.9064   -8.5189 C   0  0  0  0  0  0  0  0  0  0  0  0
   53.2521   -4.2121   -8.4920 C   0  0  0  0  0  0  0  0  0  0  0  0
   52.7317   -4.8872   -7.3818 C   0  0  0  0  0  0  0  0  0  0  0  0
   53.5090   -5.2592   -6.3061 C   0  0  0  0  0  0  0  0  0  0  0  0
   52.9790   -5.9284   -5.2138 C   0  0  0  0  0  0  0  0  0  0  0  0
   53.7415   -6.3089   -4.1303 C   0  0  0  0  0  0  0  0  0  0  0  0
   55.0858   -5.9944   -4.1672 C   0  0  0  0  0  0  0  0  0  0  0  0
   55.6252   -5.3300   -5.2457 C   0  0  0  0  0  0  0  0  0  0  0  0
   54.8542   -4.9503   -6.3316 C   0  0  0  0  0  0  0  0  0  0  0  0
   55.3626   -4.2935   -7.4125 C   0  0  0  0  0  0  0  0  0  0  0  0
   57.9342   -3.7525  -12.2278 C   0  0  0  0  0  0  0  0  0  0  0  0
   57.4534   -3.9075  -13.6163 C   0  0  0  0  0  0  0  0  0  0  0  0
   56.3703   -4.7080  -13.8807 C   0  0  0  0  0  0  0  0  0  0  0  0
   55.8799   -4.8792  -15.1712 C   0  0  0  0  0  0  0  0  0  0  0  0
   56.5246   -4.2120  -16.1838 C   0  0  0  0  0  0  0  0  0  0  0  0
   57.6002   -3.4152  -15.9339 C   0  0  0  0  0  0  0  0  0  0  0  0
   58.0867   -3.2483  -14.6347 C   0  0  0  0  0  0  0  0  0  0  0  0
  1  2  2  0  0  0
  2  3  1  0  0  0
  3 17  1  0  0  0
 17 18  1  0  0  0
 18 19  2  0  0  0
 19 20  1  0  0  0
 20 21  2  0  0  0
 21 22  1  0  0  0
 22 23  2  0  0  0
  2  4  1  0  0  0
  4  7  1  0  0  0
  7  8  2  0  0  0
  8  9  1  0  0  0
  9 10  2  0  0  0
 10 11  1  0  0  0
 11 12  2  0  0  0
 12 13  1  0  0  0
 13 14  2  0  0  0
 14 15  1  0  0  0
 15 16  2  0  0  0
 23 18  1  0  0  0
 16  7  1  0  0  0
 15 10  1  0  0  0
  3  5  1  0  0  0
  4  6  1  0  0  0
M  END
> <minimizedAffinity>
-8.17003

> <CNNscore>
0.3720616400

> <CNNaffinity>
5.1165785789

> <CNN_VS>
1.9036825895

> <CNNaffinity_variance>
0.1920168102

$$$$
[H]c1c([H])c([H])c(C([H])([H])N([H])C(=O)N([H])c2c([H])c([H])c3c([H])c([H])c([H])c([H])c3c2[H])c([H])c1[H]


 23 25  0  0  0  0  0  0  0  0999 V2000
   55.5543   -3.9210   -8.8759 O   0  0  0  0  0  0  0  0  0  0  0  0
   54.9789   -3.7774   -9.9618 C   0  0  0  0  0  0  0  0  0  0  0  0
   55.7992   -3.8381  -11.1429 N   0  0  0  0  0  0  0  0  0  0  0  0
   53.5971   -3.5648  -10.0625 N   0  0  0  0  0  0  0  0  0  0  0  0
   55.3106   -3.7143  -12.0565 H   0  0  0  0  0  0  0  0  0  0  0  0
   53.1830   -3.4473  -11.0433 H   0  0  0  0  0  0  0  0  0  0  0  0
   52.7291   -3.5072   -8.9522 C   0  0  0  0  0  0  0  0  0  0  0  0
   51.8862   -2.4782   -8.6326 C   0  0  0  0  0  0  0  0  0  0  0  0
   51.0693   -2.5948   -7.5021 C   0  0  0  0  0  0  0  0  0  0  0  0
   51.0776   -3.7085   -6.6901 C   0  0  0  0  0  0  0  0  0  0  0  0
   50.2617   -3.8095   -5.5739 C   0  0  0  0  0  0  0  0  0  0  0  0
   50.2562   -4.9158   -4.7517 C   0  0  0  0  0  0  0  0  0  0  0  0
   51.1116   -5.9483   -5.0828 C   0  0  0  0  0  0  0  0  0  0  0  0
   51.9274   -5.8611   -6.1884 C   0  0  0  0  0  0  0  0  0  0  0  0
   51.9285   -4.7470   -7.0110 C   0  0  0  0  0  0  0  0  0  0  0  0
   52.7243   -4.6353   -8.1122 C   0  0  0  0  0  0  0  0  0  0  0  0
   57.2270   -4.0587  -11.0642 C   0  0  0  0  0  0  0  0  0  0  0  0
   57.8574   -3.8285  -12.3804 C   0  0  0  0  0  0  0  0  0  0  0  0
   59.2251   -3.7840  -12.4863 C   0  0  0  0  0  0  0  0  0  0  0  0
   59.8620   -3.5751  -13.7053 C   0  0  0  0  0  0  0  0  0  0  0  0
   59.0657   -3.4128  -14.8125 C   0  0  0  0  0  0  0  0  0  0  0  0
   57.7079   -3.4548  -14.7199 C   0  0  0  0  0  0  0  0  0  0  0  0
   57.0757   -3.6652  -13.4917 C   0  0  0  0  0  0  0  0  0  0  0  0
  1  2  2  0  0  0
  2  3  1  0  0  0
  3 17  1  0  0  0
 17 18  1  0  0  0
 18 19  2  0  0  0
 19 20  1  0  0  0
 20 21  2  0  0  0
 21 22  1  0  0  0
 22 23  2  0  0  0
  2  4  1  0  0  0
  4  7  1  0  0  0
  7  8  2  0  0  0
  8  9  1  0  0  0
  9 10  2  0  0  0
 10 11  1  0  0  0
 11 12  2  0  0  0
 12 13  1  0  0  0
 13 14  2  0  0  0
 14 15  1  0  0  0
 15 16  2  0  0  0
 23 18  1  0  0  0
 16  7  1  0  0  0
 15 10  1  0  0  0
  3  5  1  0  0  0
  4  6  1  0  0  0
M  END
> <minimizedAffinity>
-8.76292

> <CNNscore>
0.3624688685

> <CNNaffinity>
5.1045312881

> <CNN_VS>
1.8502336740

> <CNNaffinity_variance>
0.0490687154

$$$$
[H]c1c([H])c([H])c(C([H])([H])N([H])C(=O)N([H])c2c([H])c([H])c3c([H])c([H])c([H])c([H])c3c2[H])c([H])c1[H]


 23 25  0  0  0  0  0  0  0  0999 V2000
   54.3385   -2.5928   -8.6067 O   0  0  0  0  0  0  0  0  0  0  0  0
   53.5973   -3.0438   -9.4888 C   0  0  0  0  0  0  0  0  0  0  0  0
   52.2015   -2.7050   -9.3983 N   0  0  0  0  0  0  0  0  0  0  0  0
   54.0704   -3.8476  -10.5352 N   0  0  0  0  0  0  0  0  0  0  0  0
   51.5794   -3.0892  -10.1427 H   0  0  0  0  0  0  0  0  0  0  0  0
   53.3574   -4.1976  -11.2538 H   0  0  0  0  0  0  0  0  0  0  0  0
   55.4242   -4.2092  -10.6966 C   0  0  0  0  0  0  0  0  0  0  0  0
   56.1524   -4.1357  -11.8523 C   0  0  0  0  0  0  0  0  0  0  0  0
   57.5000   -4.5133  -11.8318 C   0  0  0  0  0  0  0  0  0  0  0  0
   58.1299   -4.9601  -10.6902 C   0  0  0  0  0  0  0  0  0  0  0  0
   59.4660   -5.3297  -10.6856 C   0  0  0  0  0  0  0  0  0  0  0  0
   60.1122   -5.7776   -9.5534 C   0  0  0  0  0  0  0  0  0  0  0  0
   59.3675   -5.8489   -8.3924 C   0  0  0  0  0  0  0  0  0  0  0  0
   58.0397   -5.4850   -8.3829 C   0  0  0  0  0  0  0  0  0  0  0  0
   57.3958   -5.0356   -9.5236 C   0  0  0  0  0  0  0  0  0  0  0  0
   56.0834   -4.6676   -9.5418 C   0  0  0  0  0  0  0  0  0  0  0  0
   51.6902   -1.8753   -8.3288 C   0  0  0  0  0  0  0  0  0  0  0  0
   51.0177   -2.7058   -7.3086 C   0  0  0  0  0  0  0  0  0  0  0  0
   51.5715   -3.9017   -6.9252 C   0  0  0  0  0  0  0  0  0  0  0  0
   50.9764   -4.7136   -5.9650 C   0  0  0  0  0  0  0  0  0  0  0  0
   49.8015   -4.2722   -5.4072 C   0  0  0  0  0  0  0  0  0  0  0  0
   49.2425   -3.0878   -5.7796 C   0  0  0  0  0  0  0  0  0  0  0  0
   49.8465   -2.2779   -6.7448 C   0  0  0  0  0  0  0  0  0  0  0  0
  1  2  2  0  0  0
  2  3  1  0  0  0
  3 17  1  0  0  0
 17 18  1  0  0  0
 18 19  2  0  0  0
 19 20  1  0  0  0
 20 21  2  0  0  0
 21 22  1  0  0  0
 22 23  2  0  0  0
  2  4  1  0  0  0
  4  7  1  0  0  0
  7  8  2  0  0  0
  8  9  1  0  0  0
  9 10  2  0  0  0
 10 11  1  0  0  0
 11 12  2  0  0  0
 12 13  1  0  0  0
 13 14  2  0  0  0
 14 15  1  0  0  0
 15 16  2  0  0  0
 23 18  1  0  0  0
 16  7  1  0  0  0
 15 10  1  0  0  0
  3  5  1  0  0  0
  4  6  1  0  0  0
M  END
> <minimizedAffinity>
-8.91784

> <CNNscore>
0.3244336545

> <CNNaffinity>
4.9724454880

> <CNN_VS>
1.6132286787

> <CNNaffinity_variance>
0.1262147129

$$$$
[H]c1c([H])c([H])c(C([H])([H])N([H])C(=O)N([H])c2c([H])c([H])c3c([H])c([H])c([H])c([H])c3c2[H])c([H])c1[H]


 23 25  0  0  0  0  0  0  0  0999 V2000
   55.3569   -4.7441   -8.4503 O   0  0  0  0  0  0  0  0  0  0  0  0
   54.7339   -4.0983   -9.3022 C   0  0  0  0  0  0  0  0  0  0  0  0
   55.4488   -3.7489  -10.5015 N   0  0  0  0  0  0  0  0  0  0  0  0
   53.3968   -3.7140   -9.1307 N   0  0  0  0  0  0  0  0  0  0  0  0
   54.9206   -3.2024  -11.2164 H   0  0  0  0  0  0  0  0  0  0  0  0
   52.9364   -3.1533   -9.9186 H   0  0  0  0  0  0  0  0  0  0  0  0
   52.6293   -4.0314   -7.9906 C   0  0  0  0  0  0  0  0  0  0  0  0
   52.8527   -5.0652   -7.1230 C   0  0  0  0  0  0  0  0  0  0  0  0
   52.0041   -5.2234   -6.0212 C   0  0  0  0  0  0  0  0  0  0  0  0
   50.9448   -4.3778   -5.7709 C   0  0  0  0  0  0  0  0  0  0  0  0
   50.1134   -4.5471   -4.6745 C   0  0  0  0  0  0  0  0  0  0  0  0
   49.0506   -3.7108   -4.4082 C   0  0  0  0  0  0  0  0  0  0  0  0
   48.8333   -2.6711   -5.2910 C   0  0  0  0  0  0  0  0  0  0  0  0
   49.6512   -2.4915   -6.3838 C   0  0  0  0  0  0  0  0  0  0  0  0
   50.7178   -3.3350   -6.6463 C   0  0  0  0  0  0  0  0  0  0  0  0
   51.5438   -3.1791   -7.7194 C   0  0  0  0  0  0  0  0  0  0  0  0
   56.8284   -4.1361  -10.7022 C   0  0  0  0  0  0  0  0  0  0  0  0
   57.2249   -3.9207  -12.1090 C   0  0  0  0  0  0  0  0  0  0  0  0
   56.2641   -3.8279  -13.0848 C   0  0  0  0  0  0  0  0  0  0  0  0
   56.5907   -3.6202  -14.4211 C   0  0  0  0  0  0  0  0  0  0  0  0
   57.9234   -3.5100  -14.7341 C   0  0  0  0  0  0  0  0  0  0  0  0
   58.8855   -3.6005  -13.7748 C   0  0  0  0  0  0  0  0  0  0  0  0
   58.5493   -3.8091  -12.4347 C   0  0  0  0  0  0  0  0  0  0  0  0
  1  2  2  0  0  0
  2  3  1  0  0  0
  3 17  1  0  0  0
 17 18  1  0  0  0
 18 19  2  0  0  0
 19 20  1  0  0  0
 20 21  2  0  0  0
 21 22  1  0  0  0
 22 23  2  0  0  0
  2  4  1  0  0  0
  4  7  1  0  0  0
  7  8  2  0  0  0
  8  9  1  0  0  0
  9 10  2  0  0  0
 10 11  1  0  0  0
 11 12  2  0  0  0
 12 13  1  0  0  0
 13 14  2  0  0  0
 14 15  1  0  0  0
 15 16  2  0  0  0
 23 18  1  0  0  0
 16  7  1  0  0  0
 15 10  1  0  0  0
  3  5  1  0  0  0
  4  6  1  0  0  0
M  END
> <minimizedAffinity>
-10.13048

> <CNNscore>
0.3225441575

> <CNNaffinity>
5.2528753281

> <CNN_VS>
1.6942842007

> <CNNaffinity_variance>
0.0498514399

$$$$
[H]c1c([H])c([H])c(C([H])([H])N([H])C(=O)N([H])c2c([H])c([H])c3c([H])c([H])c([H])c([H])c3c2[H])c([H])c1[H]


 23 25  0  0  0  0  0  0  0  0999 V2000
   55.7249   -2.9054   -9.4733 O   0  0  0  0  0  0  0  0  0  0  0  0
   55.0556   -3.8192   -9.9711 C   0  0  0  0  0  0  0  0  0  0  0  0
   53.8055   -4.1307   -9.3294 N   0  0  0  0  0  0  0  0  0  0  0  0
   55.4731   -4.5308  -11.1043 N   0  0  0  0  0  0  0  0  0  0  0  0
   53.2452   -4.9034   -9.7509 H   0  0  0  0  0  0  0  0  0  0  0  0
   54.8321   -5.3090  -11.4659 H   0  0  0  0  0  0  0  0  0  0  0  0
   56.6766   -4.2731  -11.7933 C   0  0  0  0  0  0  0  0  0  0  0  0
   57.9429   -4.3986  -11.2913 C   0  0  0  0  0  0  0  0  0  0  0  0
   59.0344   -4.1250  -12.1237 C   0  0  0  0  0  0  0  0  0  0  0  0
   58.8882   -3.7308  -13.4363 C   0  0  0  0  0  0  0  0  0  0  0  0
   59.9795   -3.4642  -14.2487 C   0  0  0  0  0  0  0  0  0  0  0  0
   59.8520   -3.0701  -15.5634 C   0  0  0  0  0  0  0  0  0  0  0  0
   58.5692   -2.9455  -16.0599 C   0  0  0  0  0  0  0  0  0  0  0  0
   57.4766   -3.2071  -15.2640 C   0  0  0  0  0  0  0  0  0  0  0  0
   57.6109   -3.6028  -13.9437 C   0  0  0  0  0  0  0  0  0  0  0  0
   56.5468   -3.8696  -13.1345 C   0  0  0  0  0  0  0  0  0  0  0  0
   53.3526   -3.4088   -8.1602 C   0  0  0  0  0  0  0  0  0  0  0  0
   52.2930   -4.1676   -7.4643 C   0  0  0  0  0  0  0  0  0  0  0  0
   51.1506   -3.5280   -7.0521 C   0  0  0  0  0  0  0  0  0  0  0  0
   50.1249   -4.2031   -6.3982 C   0  0  0  0  0  0  0  0  0  0  0  0
   50.2967   -5.5475   -6.1765 C   0  0  0  0  0  0  0  0  0  0  0  0
   51.4255   -6.1929   -6.5806 C   0  0  0  0  0  0  0  0  0  0  0  0
   52.4513   -5.5077   -7.2368 C   0  0  0  0  0  0  0  0  0  0  0  0
  1  2  2  0  0  0
  2  3  1  0  0  0
  3 17  1  0  0  0
 17 18  1  0  0  0
 18 19  2  0  0  0
 19 20  1  0  0  0
 20 21  2  0  0  0
 21 22  1  0  0  0
 22 23  2  0  0  0
  2  4  1  0  0  0
  4  7  1  0  0  0
  7  8  2  0  0  0
  8  9  1  0  0  0
  9 10  2  0  0  0
 10 11  1  0  0  0
 11 12  2  0  0  0
 12 13  1  0  0  0
 13 14  2  0  0  0
 14 15  1  0  0  0
 15 16  2  0  0  0
 23 18  1  0  0  0
 16  7  1  0  0  0
 15 10  1  0  0  0
  3  5  1  0  0  0
  4  6  1  0  0  0
M  END
> <minimizedAffinity>
-7.04572

> <CNNscore>
0.3144100904

> <CNNaffinity>
4.9780526161

> <CNN_VS>
1.5651500225

> <CNNaffinity_variance>
0.0589995086

$$$$
[H]c1c([H])c([H])c(C([H])([H])N([H])C(=O)N([H])c2c([H])c([H])c3c([H])c([H])c([H])c([H])c3c2[H])c([H])c1[H]


 23 25  0  0  0  0  0  0  0  0999 V2000
   52.5013   -5.3299   -8.2200 O   0  0  0  0  0  0  0  0  0  0  0  0
   52.5699   -4.1363   -7.9015 C   0  0  0  0  0  0  0  0  0  0  0  0
   51.4776   -3.6083   -7.1271 N   0  0  0  0  0  0  0  0  0  0  0  0
   53.6483   -3.3179   -8.2651 N   0  0  0  0  0  0  0  0  0  0  0  0
   51.5382   -2.6009   -6.8624 H   0  0  0  0  0  0  0  0  0  0  0  0
   53.6237   -2.2948   -7.9492 H   0  0  0  0  0  0  0  0  0  0  0  0
   54.7585   -3.7677   -9.0099 C   0  0  0  0  0  0  0  0  0  0  0  0
   54.8886   -3.7393  -10.3714 C   0  0  0  0  0  0  0  0  0  0  0  0
   56.0746   -4.2052  -10.9507 C   0  0  0  0  0  0  0  0  0  0  0  0
   57.1242   -4.6959  -10.2042 C   0  0  0  0  0  0  0  0  0  0  0  0
   58.2931   -5.1531  -10.7928 C   0  0  0  0  0  0  0  0  0  0  0  0
   59.3529   -5.6459  -10.0620 C   0  0  0  0  0  0  0  0  0  0  0  0
   59.2106   -5.6711   -8.6885 C   0  0  0  0  0  0  0  0  0  0  0  0
   58.0551   -5.2203   -8.0909 C   0  0  0  0  0  0  0  0  0  0  0  0
   56.9935   -4.7261   -8.8304 C   0  0  0  0  0  0  0  0  0  0  0  0
   55.8394   -4.2720   -8.2645 C   0  0  0  0  0  0  0  0  0  0  0  0
   50.3550   -4.4340   -6.7380 C   0  0  0  0  0  0  0  0  0  0  0  0
   50.4751   -4.8326   -5.3204 C   0  0  0  0  0  0  0  0  0  0  0  0
   51.4783   -5.6846   -4.9312 C   0  0  0  0  0  0  0  0  0  0  0  0
   51.6328   -6.0826   -3.6071 C   0  0  0  0  0  0  0  0  0  0  0  0
   50.7362   -5.5879   -2.6919 C   0  0  0  0  0  0  0  0  0  0  0  0
   49.7369   -4.7421   -3.0661 C   0  0  0  0  0  0  0  0  0  0  0  0
   49.5884   -4.3470   -4.3981 C   0  0  0  0  0  0  0  0  0  0  0  0
  1  2  2  0  0  0
  2  3  1  0  0  0
  3 17  1  0  0  0
 17 18  1  0  0  0
 18 19  2  0  0  0
 19 20  1  0  0  0
 20 21  2  0  0  0
 21 22  1  0  0  0
 22 23  2  0  0  0
  2  4  1  0  0  0
  4  7  1  0  0  0
  7  8  2  0  0  0
  8  9  1  0  0  0
  9 10  2  0  0  0
 10 11  1  0  0  0
 11 12  2  0  0  0
 12 13  1  0  0  0
 13 14  2  0  0  0
 14 15  1  0  0  0
 15 16  2  0  0  0
 23 18  1  0  0  0
 16  7  1  0  0  0
 15 10  1  0  0  0
  3  5  1  0  0  0
  4  6  1  0  0  0
M  END
> <minimizedAffinity>
-9.16780

> <CNNscore>
0.2939509749

> <CNNaffinity>
5.2089304924

> <CNN_VS>
1.5311702490

> <CNNaffinity_variance>
0.0769358128

$$$$
[H]c1c(N([H])c2c([H])c([H])c([H])c3c([H])c(C#N)c([H])c([H])c23)nnc(C([H])([H])N([H])C([H])([H])C([H])([H])O[C@]2([H])C([H])([H])C([H])([H])C([H])([H])C([H])([H])[C@]2([H])N([H])C(=O)c2c([H])c([H])c(Cl)c([H])c2Cl)c1[H]


 44 48  0  0  0  0  0  0  0  0999 V2000
   50.1946   -3.4871   -5.2580 N   0  0  0  0  0  0  0  0  0  0  0  0
   49.3677   -3.2276   -4.6458 H   0  0  0  0  0  0  0  0  0  0  0  0
   49.8355   -3.2314   -6.6378 C   0  0  0  0  0  0  0  0  0  0  0  0
   53.1961   -3.4389   -9.2465 C   0  0  0  0  0  0  0  0  0  0  0  0
   52.8093   -4.5729   -8.5075 C   0  0  0  0  0  0  0  0  0  0  0  0
   51.7287   -4.4844   -7.6790 C   0  0  0  0  0  0  0  0  0  0  0  0
   50.9964   -3.3278   -7.5337 C   0  0  0  0  0  0  0  0  0  0  0  0
   51.4201   -2.2756   -8.2713 N   0  0  0  0  0  0  0  0  0  0  0  0
   52.4627   -2.3598   -9.0711 N   0  0  0  0  0  0  0  0  0  0  0  0
   54.3215   -3.5376  -10.0609 N   0  0  0  0  0  0  0  0  0  0  0  0
   54.2513   -3.1006  -11.0472 H   0  0  0  0  0  0  0  0  0  0  0  0
   58.7669   -4.0448  -12.3748 C   0  0  0  0  0  0  0  0  0  0  0  0
   57.5517   -3.5219  -12.7314 C   0  0  0  0  0  0  0  0  0  0  0  0
   56.4722   -3.5494  -11.8346 C   0  0  0  0  0  0  0  0  0  0  0  0
   56.6318   -4.0970  -10.6055 C   0  0  0  0  0  0  0  0  0  0  0  0
   55.5479   -4.1335   -9.7016 C   0  0  0  0  0  0  0  0  0  0  0  0
   55.7623   -4.7055   -8.4768 C   0  0  0  0  0  0  0  0  0  0  0  0
   57.0259   -5.2321   -8.1523 C   0  0  0  0  0  0  0  0  0  0  0  0
   58.0719   -5.1952   -9.0270 C   0  0  0  0  0  0  0  0  0  0  0  0
   57.8799   -4.6244  -10.2645 C   0  0  0  0  0  0  0  0  0  0  0  0
   58.9588   -4.6065  -11.1370 C   0  0  0  0  0  0  0  0  0  0  0  0
   60.7453   -3.9554  -14.0687 N   0  0  0  0  0  0  0  0  0  0  0  0
   59.8643   -4.0054  -13.3144 C   0  0  0  0  0  0  0  0  0  0  0  0
   50.4193   -4.9064   -5.0560 C   0  0  0  0  0  0  0  0  0  0  0  0
   51.4584   -5.1742   -4.0147 C   0  0  0  0  0  0  0  0  0  0  0  0
   52.2639   -6.2619   -4.3207 O   0  0  0  0  0  0  0  0  0  0  0  0
   53.5635   -5.9619   -4.6125 C   0  0  0  0  0  0  0  0  0  0  0  0
   54.2979   -7.1185   -5.2383 C   0  0  0  0  0  0  0  0  0  0  0  0
   55.7897   -6.8686   -5.2672 C   0  0  0  0  0  0  0  0  0  0  0  0
   56.1190   -5.4077   -5.0734 C   0  0  0  0  0  0  0  0  0  0  0  0
   55.6396   -4.8892   -3.7392 C   0  0  0  0  0  0  0  0  0  0  0  0
   54.2613   -5.4239   -3.3860 C   0  0  0  0  0  0  0  0  0  0  0  0
   54.3236   -6.3816   -2.3087 N   0  0  0  0  0  0  0  0  0  0  0  0
   53.7413   -6.1769   -1.0361 C   0  0  0  0  0  0  0  0  0  0  0  0
   53.1309   -5.0953   -0.8218 O   0  0  0  0  0  0  0  0  0  0  0  0
   54.8244   -7.2986   -2.4420 H   0  0  0  0  0  0  0  0  0  0  0  0
   53.8008   -7.1361    0.0465 C   0  0  0  0  0  0  0  0  0  0  0  0
   54.4567   -6.8213    1.2251 C   0  0  0  0  0  0  0  0  0  0  0  0
   54.5323   -7.7159    2.2775 C   0  0  0  0  0  0  0  0  0  0  0  0
   53.9497   -8.9734    2.1944 C   0  0  0  0  0  0  0  0  0  0  0  0
   54.0515  -10.0959    3.5321 Cl  0  0  0  0  0  0  0  0  0  0  0  0
   53.2974   -9.2846    1.0203 C   0  0  0  0  0  0  0  0  0  0  0  0
   53.2242   -8.3910   -0.0264 C   0  0  0  0  0  0  0  0  0  0  0  0
   52.3935   -8.7953   -1.5119 Cl  0  0  0  0  0  0  0  0  0  0  0  0
 22 23  3  0  0  0
 23 12  1  0  0  0
 12 13  2  0  0  0
 13 14  1  0  0  0
 14 15  2  0  0  0
 15 16  1  0  0  0
 16 10  1  0  0  0
 10  4  1  0  0  0
  4  5  2  0  0  0
  5  6  1  0  0  0
  6  7  2  0  0  0
  7  3  1  0  0  0
  3  1  1  0  0  0
  1 24  1  0  0  0
 24 25  1  0  0  0
 25 26  1  0  0  0
 26 27  1  0  0  0
 27 28  1  0  0  0
 28 29  1  0  0  0
 29 30  1  0  0  0
 30 31  1  0  0  0
 31 32  1  0  0  0
 32 33  1  0  0  0
 33 34  1  0  0  0
 34 35  2  0  0  0
 34 37  1  0  0  0
 37 38  2  0  0  0
 38 39  1  0  0  0
 39 40  2  0  0  0
 40 41  1  0  0  0
 40 42  1  0  0  0
 42 43  2  0  0  0
 43 44  1  0  0  0
  7  8  1  0  0  0
  8  9  2  0  0  0
 16 17  2  0  0  0
 17 18  1  0  0  0
 18 19  2  0  0  0
 19 20  1  0  0  0
 20 21  2  0  0  0
 21 12  1  0  0  0
 20 15  1  0  0  0
  9  4  1  0  0  0
 32 27  1  0  0  0
 43 37  1  0  0  0
 10 11  1  0  0  0
  1  2  1  0  0  0
 33 36  1  0  0  0
M  END
> <minimizedAffinity>
-9.01420

> <CNNscore>
0.4461246133

> <CNNaffinity>
7.8014574051

> <CNN_VS>
3.4804222584

> <CNNaffinity_variance>
0.0079221223

$$$$
[H]c1c(N([H])c2c([H])c([H])c([H])c3c([H])c(C#N)c([H])c([H])c23)nnc(C([H])([H])N([H])C([H])([H])C([H])([H])O[C@]2([H])C([H])([H])C([H])([H])C([H])([H])C([H])([H])[C@]2([H])N([H])C(=O)c2c([H])c([H])c(Cl)c([H])c2Cl)c1[H]


 44 48  0  0  0  0  0  0  0  0999 V2000
   49.8120   -4.0678   -5.7203 N   0  0  0  0  0  0  0  0  0  0  0  0
   48.7882   -3.8480   -5.5491 H   0  0  0  0  0  0  0  0  0  0  0  0
   50.0308   -4.1245   -7.1511 C   0  0  0  0  0  0  0  0  0  0  0  0
   54.1313   -3.5939   -8.1739 C   0  0  0  0  0  0  0  0  0  0  0  0
   53.7250   -4.7463   -7.4750 C   0  0  0  0  0  0  0  0  0  0  0  0
   52.4061   -4.8965   -7.1589 C   0  0  0  0  0  0  0  0  0  0  0  0
   51.4504   -3.9647   -7.4958 C   0  0  0  0  0  0  0  0  0  0  0  0
   51.9063   -2.8815   -8.1661 N   0  0  0  0  0  0  0  0  0  0  0  0
   53.1787   -2.7354   -8.4717 N   0  0  0  0  0  0  0  0  0  0  0  0
   55.4861   -3.4410   -8.4581 N   0  0  0  0  0  0  0  0  0  0  0  0
   56.0978   -2.9841   -7.6929 H   0  0  0  0  0  0  0  0  0  0  0  0
   59.6930   -6.0376   -9.4239 C   0  0  0  0  0  0  0  0  0  0  0  0
   59.0859   -5.5803   -8.2838 C   0  0  0  0  0  0  0  0  0  0  0  0
   57.8899   -4.8493   -8.3564 C   0  0  0  0  0  0  0  0  0  0  0  0
   57.3295   -4.5931   -9.5633 C   0  0  0  0  0  0  0  0  0  0  0  0
   56.1301   -3.8526   -9.6430 C   0  0  0  0  0  0  0  0  0  0  0  0
   55.6123   -3.6160  -10.8877 C   0  0  0  0  0  0  0  0  0  0  0  0
   56.2693   -4.1027  -12.0325 C   0  0  0  0  0  0  0  0  0  0  0  0
   57.4278   -4.8183  -11.9531 C   0  0  0  0  0  0  0  0  0  0  0  0
   57.9670   -5.0691  -10.7118 C   0  0  0  0  0  0  0  0  0  0  0  0
   59.1494   -5.7934  -10.6606 C   0  0  0  0  0  0  0  0  0  0  0  0
   61.9039   -7.4045   -9.2364 N   0  0  0  0  0  0  0  0  0  0  0  0
   60.9239   -6.7883   -9.3251 C   0  0  0  0  0  0  0  0  0  0  0  0
   50.0521   -5.3701   -5.1271 C   0  0  0  0  0  0  0  0  0  0  0  0
   50.8391   -5.2801   -3.8589 C   0  0  0  0  0  0  0  0  0  0  0  0
   51.6734   -6.3710   -3.6607 O   0  0  0  0  0  0  0  0  0  0  0  0
   52.8683   -6.0908   -3.0624 C   0  0  0  0  0  0  0  0  0  0  0  0
   53.9006   -7.1610   -3.3023 C   0  0  0  0  0  0  0  0  0  0  0  0
   55.0951   -6.9837   -2.3909 C   0  0  0  0  0  0  0  0  0  0  0  0
   55.1524   -5.5939   -1.8031 C   0  0  0  0  0  0  0  0  0  0  0  0
   53.9399   -5.2833   -0.9592 C   0  0  0  0  0  0  0  0  0  0  0  0
   52.6599   -5.8010   -1.5950 C   0  0  0  0  0  0  0  0  0  0  0  0
   52.1250   -6.9276   -0.8695 N   0  0  0  0  0  0  0  0  0  0  0  0
   50.7508   -7.2602   -0.8298 C   0  0  0  0  0  0  0  0  0  0  0  0
   49.9383   -6.5333   -1.4623 O   0  0  0  0  0  0  0  0  0  0  0  0
   52.7665   -7.5617   -0.3256 H   0  0  0  0  0  0  0  0  0  0  0  0
   50.2108   -8.3904   -0.1041 C   0  0  0  0  0  0  0  0  0  0  0  0
   49.2713   -8.1963    0.8949 C   0  0  0  0  0  0  0  0  0  0  0  0
   48.7370   -9.2549    1.6073 C   0  0  0  0  0  0  0  0  0  0  0  0
   49.1232  -10.5629    1.3478 C   0  0  0  0  0  0  0  0  0  0  0  0
   48.4401  -11.8935    2.2551 Cl  0  0  0  0  0  0  0  0  0  0  0  0
   50.0586  -10.7538    0.3530 C   0  0  0  0  0  0  0  0  0  0  0  0
   50.5891   -9.6968   -0.3547 C   0  0  0  0  0  0  0  0  0  0  0  0
   51.7750   -9.9496   -1.6156 Cl  0  0  0  0  0  0  0  0  0  0  0  0
 22 23  3  0  0  0
 23 12  1  0  0  0
 12 13  2  0  0  0
 13 14  1  0  0  0
 14 15  2  0  0  0
 15 16  1  0  0  0
 16 10  1  0  0  0
 10  4  1  0  0  0
  4  5  2  0  0  0
  5  6  1  0  0  0
  6  7  2  0  0  0
  7  3  1  0  0  0
  3  1  1  0  0  0
  1 24  1  0  0  0
 24 25  1  0  0  0
 25 26  1  0  0  0
 26 27  1  0  0  0
 27 28  1  0  0  0
 28 29  1  0  0  0
 29 30  1  0  0  0
 30 31  1  0  0  0
 31 32  1  0  0  0
 32 33  1  0  0  0
 33 34  1  0  0  0
 34 35  2  0  0  0
 34 37  1  0  0  0
 37 38  2  0  0  0
 38 39  1  0  0  0
 39 40  2  0  0  0
 40 41  1  0  0  0
 40 42  1  0  0  0
 42 43  2  0  0  0
 43 44  1  0  0  0
  7  8  1  0  0  0
  8  9  2  0  0  0
 16 17  2  0  0  0
 17 18  1  0  0  0
 18 19  2  0  0  0
 19 20  1  0  0  0
 20 21  2  0  0  0
 21 12  1  0  0  0
 20 15  1  0  0  0
  9  4  1  0  0  0
 32 27  1  0  0  0
 43 37  1  0  0  0
 10 11  1  0  0  0
  1  2  1  0  0  0
 33 36  1  0  0  0
M  END
> <minimizedAffinity>
-8.93309

> <CNNscore>
0.2481411099

> <CNNaffinity>
7.4390158653

> <CNN_VS>
1.8459256887

> <CNNaffinity_variance>
0.0330977775

$$$$
[H]c1c(N([H])c2c([H])c([H])c([H])c3c([H])c(C#N)c([H])c([H])c23)nnc(C([H])([H])N([H])C([H])([H])C([H])([H])O[C@]2([H])C([H])([H])C([H])([H])C([H])([H])C([H])([H])[C@]2([H])N([H])C(=O)c2c([H])c([H])c(Cl)c([H])c2Cl)c1[H]


 44 48  0  0  0  0  0  0  0  0999 V2000
   50.2869   -5.0500   -3.7990 N   0  0  0  0  0  0  0  0  0  0  0  0
   49.4982   -5.3547   -3.1580 H   0  0  0  0  0  0  0  0  0  0  0  0
   50.2248   -5.8486   -5.0059 C   0  0  0  0  0  0  0  0  0  0  0  0
   53.0120   -4.4690   -7.9163 C   0  0  0  0  0  0  0  0  0  0  0  0
   53.0353   -5.8147   -7.5037 C   0  0  0  0  0  0  0  0  0  0  0  0
   52.1321   -6.2355   -6.5713 C   0  0  0  0  0  0  0  0  0  0  0  0
   51.1941   -5.3963   -6.0136 C   0  0  0  0  0  0  0  0  0  0  0  0
   51.2251   -4.1170   -6.4529 N   0  0  0  0  0  0  0  0  0  0  0  0
   52.0961   -3.7098   -7.3525 N   0  0  0  0  0  0  0  0  0  0  0  0
   53.9628   -4.0492   -8.8433 N   0  0  0  0  0  0  0  0  0  0  0  0
   53.6386   -3.3349   -9.5871 H   0  0  0  0  0  0  0  0  0  0  0  0
   57.5379   -3.9747  -12.3909 C   0  0  0  0  0  0  0  0  0  0  0  0
   56.2097   -3.6398  -12.3574 C   0  0  0  0  0  0  0  0  0  0  0  0
   55.4634   -3.7985  -11.1793 C   0  0  0  0  0  0  0  0  0  0  0  0
   56.0600   -4.2866  -10.0649 C   0  0  0  0  0  0  0  0  0  0  0  0
   55.3128   -4.4548   -8.8789 C   0  0  0  0  0  0  0  0  0  0  0  0
   55.9633   -4.9593   -7.7854 C   0  0  0  0  0  0  0  0  0  0  0  0
   57.3281   -5.2918   -7.8642 C   0  0  0  0  0  0  0  0  0  0  0  0
   58.0481   -5.1281   -9.0110 C   0  0  0  0  0  0  0  0  0  0  0  0
   57.4151   -4.6218  -10.1233 C   0  0  0  0  0  0  0  0  0  0  0  0
   58.1696   -4.4720  -11.2781 C   0  0  0  0  0  0  0  0  0  0  0  0
   58.9035   -3.6691  -14.5893 N   0  0  0  0  0  0  0  0  0  0  0  0
   58.2867   -3.8027  -13.6149 C   0  0  0  0  0  0  0  0  0  0  0  0
   51.5195   -5.3228   -3.0835 C   0  0  0  0  0  0  0  0  0  0  0  0
   51.5422   -6.6971   -2.4949 C   0  0  0  0  0  0  0  0  0  0  0  0
   52.7206   -7.3802   -2.7596 O   0  0  0  0  0  0  0  0  0  0  0  0
   53.7372   -6.6182   -3.2598 C   0  0  0  0  0  0  0  0  0  0  0  0
   54.5393   -7.3409   -4.3100 C   0  0  0  0  0  0  0  0  0  0  0  0
   55.8241   -6.6047   -4.6204 C   0  0  0  0  0  0  0  0  0  0  0  0
   55.7797   -5.1718   -4.1462 C   0  0  0  0  0  0  0  0  0  0  0  0
   55.5990   -5.0734   -2.6508 C   0  0  0  0  0  0  0  0  0  0  0  0
   54.5936   -6.0896   -2.1339 C   0  0  0  0  0  0  0  0  0  0  0  0
   55.2378   -7.1362   -1.3780 N   0  0  0  0  0  0  0  0  0  0  0  0
   56.4623   -6.9730   -0.6892 C   0  0  0  0  0  0  0  0  0  0  0  0
   57.0318   -5.8496   -0.7344 O   0  0  0  0  0  0  0  0  0  0  0  0
   54.7989   -8.0916   -1.3137 H   0  0  0  0  0  0  0  0  0  0  0  0
   57.1107   -8.0205    0.0711 C   0  0  0  0  0  0  0  0  0  0  0  0
   57.0335   -8.0315    1.4540 C   0  0  0  0  0  0  0  0  0  0  0  0
   57.6427   -9.0175    2.2093 C   0  0  0  0  0  0  0  0  0  0  0  0
   58.3605  -10.0423    1.6076 C   0  0  0  0  0  0  0  0  0  0  0  0
   59.1262  -11.2838    2.5733 Cl  0  0  0  0  0  0  0  0  0  0  0  0
   58.4361  -10.0293    0.2310 C   0  0  0  0  0  0  0  0  0  0  0  0
   57.8281   -9.0453   -0.5183 C   0  0  0  0  0  0  0  0  0  0  0  0
   57.9294   -9.0380   -2.2648 Cl  0  0  0  0  0  0  0  0  0  0  0  0
 22 23  3  0  0  0
 23 12  1  0  0  0
 12 13  2  0  0  0
 13 14  1  0  0  0
 14 15  2  0  0  0
 15 16  1  0  0  0
 16 10  1  0  0  0
 10  4  1  0  0  0
  4  5  2  0  0  0
  5  6  1  0  0  0
  6  7  2  0  0  0
  7  3  1  0  0  0
  3  1  1  0  0  0
  1 24  1  0  0  0
 24 25  1  0  0  0
 25 26  1  0  0  0
 26 27  1  0  0  0
 27 28  1  0  0  0
 28 29  1  0  0  0
 29 30  1  0  0  0
 30 31  1  0  0  0
 31 32  1  0  0  0
 32 33  1  0  0  0
 33 34  1  0  0  0
 34 35  2  0  0  0
 34 37  1  0  0  0
 37 38  2  0  0  0
 38 39  1  0  0  0
 39 40  2  0  0  0
 40 41  1  0  0  0
 40 42  1  0  0  0
 42 43  2  0  0  0
 43 44  1  0  0  0
  7  8  1  0  0  0
  8  9  2  0  0  0
 16 17  2  0  0  0
 17 18  1  0  0  0
 18 19  2  0  0  0
 19 20  1  0  0  0
 20 21  2  0  0  0
 21 12  1  0  0  0
 20 15  1  0  0  0
  9  4  1  0  0  0
 32 27  1  0  0  0
 43 37  1  0  0  0
 10 11  1  0  0  0
  1  2  1  0  0  0
 33 36  1  0  0  0
M  END
> <minimizedAffinity>
-8.57275

> <CNNscore>
0.2076112330

> <CNNaffinity>
7.3378043175

> <CNN_VS>
1.5234105587

> <CNNaffinity_variance>
0.0585611090

$$$$
[H]c1c(N([H])c2c([H])c([H])c([H])c3c([H])c(C#N)c([H])c([H])c23)nnc(C([H])([H])N([H])C([H])([H])C([H])([H])O[C@]2([H])C([H])([H])C([H])([H])C([H])([H])C([H])([H])[C@]2([H])N([H])C(=O)c2c([H])c([H])c(Cl)c([H])c2Cl)c1[H]


 44 48  0  0  0  0  0  0  0  0999 V2000
   56.7061   -3.4045  -12.8523 N   0  0  0  0  0  0  0  0  0  0  0  0
   57.2222   -2.6559  -13.3992 H   0  0  0  0  0  0  0  0  0  0  0  0
   57.5753   -3.8724  -11.7922 C   0  0  0  0  0  0  0  0  0  0  0  0
   55.3426   -4.7743   -8.2789 C   0  0  0  0  0  0  0  0  0  0  0  0
   56.7401   -4.9434   -8.2859 C   0  0  0  0  0  0  0  0  0  0  0  0
   57.4357   -4.6469   -9.4218 C   0  0  0  0  0  0  0  0  0  0  0  0
   56.8265   -4.1871  -10.5676 C   0  0  0  0  0  0  0  0  0  0  0  0
   55.4828   -4.0466  -10.4946 N   0  0  0  0  0  0  0  0  0  0  0  0
   54.8105   -4.3324   -9.3990 N   0  0  0  0  0  0  0  0  0  0  0  0
   54.6452   -5.1142   -7.1223 N   0  0  0  0  0  0  0  0  0  0  0  0
   55.1919   -5.6557   -6.3629 H   0  0  0  0  0  0  0  0  0  0  0  0
   51.4752   -6.2613   -3.3796 C   0  0  0  0  0  0  0  0  0  0  0  0
   52.7624   -6.6129   -3.6910 C   0  0  0  0  0  0  0  0  0  0  0  0
   53.3759   -6.1187   -4.8526 C   0  0  0  0  0  0  0  0  0  0  0  0
   52.6909   -5.2866   -5.6738 C   0  0  0  0  0  0  0  0  0  0  0  0
   53.3005   -4.7915   -6.8472 C   0  0  0  0  0  0  0  0  0  0  0  0
   52.5603   -3.9613   -7.6447 C   0  0  0  0  0  0  0  0  0  0  0  0
   51.2410   -3.6272   -7.2881 C   0  0  0  0  0  0  0  0  0  0  0  0
   50.6542   -4.1063   -6.1538 C   0  0  0  0  0  0  0  0  0  0  0  0
   51.3796   -4.9426   -5.3360 C   0  0  0  0  0  0  0  0  0  0  0  0
   50.7560   -5.4207   -4.1924 C   0  0  0  0  0  0  0  0  0  0  0  0
   50.3809   -7.1877   -1.2034 N   0  0  0  0  0  0  0  0  0  0  0  0
   50.8638   -6.7823   -2.1782 C   0  0  0  0  0  0  0  0  0  0  0  0
   56.4389   -4.4798  -13.7894 C   0  0  0  0  0  0  0  0  0  0  0  0
   56.1981   -3.9772  -15.1768 C   0  0  0  0  0  0  0  0  0  0  0  0
   57.1207   -3.0197  -15.5736 O   0  0  0  0  0  0  0  0  0  0  0  0
   57.9592   -3.3997  -16.5820 C   0  0  0  0  0  0  0  0  0  0  0  0
   59.2722   -2.6624  -16.5516 C   0  0  0  0  0  0  0  0  0  0  0  0
   60.0471   -2.8711  -17.8341 C   0  0  0  0  0  0  0  0  0  0  0  0
   59.5390   -4.0624  -18.6105 C   0  0  0  0  0  0  0  0  0  0  0  0
   58.0960   -3.8989  -19.0224 C   0  0  0  0  0  0  0  0  0  0  0  0
   57.2569   -3.2843  -17.9139 C   0  0  0  0  0  0  0  0  0  0  0  0
   56.8692   -1.9310  -18.2300 N   0  0  0  0  0  0  0  0  0  0  0  0
   55.5431   -1.5389  -18.5270 C   0  0  0  0  0  0  0  0  0  0  0  0
   54.6405   -2.4185  -18.5185 O   0  0  0  0  0  0  0  0  0  0  0  0
   57.5902   -1.1633  -18.2502 H   0  0  0  0  0  0  0  0  0  0  0  0
   55.1504   -0.1819  -18.8433 C   0  0  0  0  0  0  0  0  0  0  0  0
   55.9129    0.5831  -19.7103 C   0  0  0  0  0  0  0  0  0  0  0  0
   55.5654    1.8829  -20.0319 C   0  0  0  0  0  0  0  0  0  0  0  0
   54.4310    2.4767  -19.4952 C   0  0  0  0  0  0  0  0  0  0  0  0
   54.0015    4.1210  -19.9097 Cl  0  0  0  0  0  0  0  0  0  0  0  0
   53.6736    1.7133  -18.6323 C   0  0  0  0  0  0  0  0  0  0  0  0
   54.0228    0.4187  -18.3140 C   0  0  0  0  0  0  0  0  0  0  0  0
   53.0546   -0.5420  -17.2185 Cl  0  0  0  0  0  0  0  0  0  0  0  0
 22 23  3  0  0  0
 23 12  1  0  0  0
 12 13  2  0  0  0
 13 14  1  0  0  0
 14 15  2  0  0  0
 15 16  1  0  0  0
 16 10  1  0  0  0
 10  4  1  0  0  0
  4  5  2  0  0  0
  5  6  1  0  0  0
  6  7  2  0  0  0
  7  3  1  0  0  0
  3  1  1  0  0  0
  1 24  1  0  0  0
 24 25  1  0  0  0
 25 26  1  0  0  0
 26 27  1  0  0  0
 27 28  1  0  0  0
 28 29  1  0  0  0
 29 30  1  0  0  0
 30 31  1  0  0  0
 31 32  1  0  0  0
 32 33  1  0  0  0
 33 34  1  0  0  0
 34 35  2  0  0  0
 34 37  1  0  0  0
 37 38  2  0  0  0
 38 39  1  0  0  0
 39 40  2  0  0  0
 40 41  1  0  0  0
 40 42  1  0  0  0
 42 43  2  0  0  0
 43 44  1  0  0  0
  7  8  1  0  0  0
  8  9  2  0  0  0
 16 17  2  0  0  0
 17 18  1  0  0  0
 18 19  2  0  0  0
 19 20  1  0  0  0
 20 21  2  0  0  0
 21 12  1  0  0  0
 20 15  1  0  0  0
  9  4  1  0  0  0
 32 27  1  0  0  0
 43 37  1  0  0  0
 10 11  1  0  0  0
  1  2  1  0  0  0
 33 36  1  0  0  0
M  END
> <minimizedAffinity>
-9.09814

> <CNNscore>
0.1804392189

> <CNNaffinity>
6.6455001831

> <CNN_VS>
1.1991088390

> <CNNaffinity_variance>
0.1251121908

$$$$
[H]c1c(N([H])c2c([H])c([H])c([H])c3c([H])c(C#N)c([H])c([H])c23)nnc(C([H])([H])N([H])C([H])([H])C([H])([H])O[C@]2([H])C([H])([H])C([H])([H])C([H])([H])C([H])([H])[C@]2([H])N([H])C(=O)c2c([H])c([H])c(Cl)c([H])c2Cl)c1[H]


 44 48  0  0  0  0  0  0  0  0999 V2000
   56.0248   -4.3850   -8.8824 N   0  0  0  0  0  0  0  0  0  0  0  0
   56.7230   -4.2781   -8.0905 H   0  0  0  0  0  0  0  0  0  0  0  0
   56.7546   -4.3856  -10.1336 C   0  0  0  0  0  0  0  0  0  0  0  0
   60.6054   -6.1760   -9.8055 C   0  0  0  0  0  0  0  0  0  0  0  0
   59.7924   -6.0441   -8.6639 C   0  0  0  0  0  0  0  0  0  0  0  0
   58.5617   -5.4688   -8.7923 C   0  0  0  0  0  0  0  0  0  0  0  0
   58.0781   -5.0093   -9.9966 C   0  0  0  0  0  0  0  0  0  0  0  0
   58.9080   -5.1662  -11.0535 N   0  0  0  0  0  0  0  0  0  0  0  0
   60.0958   -5.7211  -10.9309 N   0  0  0  0  0  0  0  0  0  0  0  0
   61.8717   -6.7344   -9.6497 N   0  0  0  0  0  0  0  0  0  0  0  0
   62.3213   -7.1792  -10.5264 H   0  0  0  0  0  0  0  0  0  0  0  0
   62.6250  -10.1557   -6.0303 C   0  0  0  0  0  0  0  0  0  0  0  0
   61.8528  -10.1066   -7.1611 C   0  0  0  0  0  0  0  0  0  0  0  0
   61.8538   -8.9644   -7.9768 C   0  0  0  0  0  0  0  0  0  0  0  0
   62.6248   -7.9006   -7.6448 C   0  0  0  0  0  0  0  0  0  0  0  0
   62.6250   -6.7464   -8.4578 C   0  0  0  0  0  0  0  0  0  0  0  0
   63.4158   -5.6983   -8.0712 C   0  0  0  0  0  0  0  0  0  0  0  0
   64.1919   -5.7904   -6.9014 C   0  0  0  0  0  0  0  0  0  0  0  0
   64.1905   -6.9067   -6.1177 C   0  0  0  0  0  0  0  0  0  0  0  0
   63.4033   -7.9736   -6.4869 C   0  0  0  0  0  0  0  0  0  0  0  0
   63.4157   -9.0936   -5.6679 C   0  0  0  0  0  0  0  0  0  0  0  0
   62.6031  -12.2862   -4.5297 N   0  0  0  0  0  0  0  0  0  0  0  0
   62.6080  -11.3422   -5.2055 C   0  0  0  0  0  0  0  0  0  0  0  0
   55.1532   -3.2269   -8.8139 C   0  0  0  0  0  0  0  0  0  0  0  0
   53.7076   -3.5982   -8.9038 C   0  0  0  0  0  0  0  0  0  0  0  0
   53.3761   -4.6822   -8.1035 O   0  0  0  0  0  0  0  0  0  0  0  0
   52.0792   -4.7185   -7.6780 C   0  0  0  0  0  0  0  0  0  0  0  0
   51.5592   -3.3591   -7.2904 C   0  0  0  0  0  0  0  0  0  0  0  0
   50.2479   -3.4672   -6.5436 C   0  0  0  0  0  0  0  0  0  0  0  0
   49.5949   -4.8136   -6.7458 C   0  0  0  0  0  0  0  0  0  0  0  0
   50.4547   -5.9445   -6.2354 C   0  0  0  0  0  0  0  0  0  0  0  0
   51.9218   -5.7386   -6.5756 C   0  0  0  0  0  0  0  0  0  0  0  0
   52.6995   -5.4231   -5.4021 N   0  0  0  0  0  0  0  0  0  0  0  0
   53.8663   -6.1236   -5.0168 C   0  0  0  0  0  0  0  0  0  0  0  0
   54.2558   -7.0829   -5.7355 O   0  0  0  0  0  0  0  0  0  0  0  0
   52.4109   -4.6305   -4.7712 H   0  0  0  0  0  0  0  0  0  0  0  0
   54.6497   -5.8090   -3.8408 C   0  0  0  0  0  0  0  0  0  0  0  0
   54.3022   -6.3346   -2.6074 C   0  0  0  0  0  0  0  0  0  0  0  0
   55.0293   -6.0525   -1.4648 C   0  0  0  0  0  0  0  0  0  0  0  0
   56.1440   -5.2260   -1.5089 C   0  0  0  0  0  0  0  0  0  0  0  0
   57.0558   -4.8769   -0.0574 Cl  0  0  0  0  0  0  0  0  0  0  0  0
   56.4880   -4.7039   -2.7377 C   0  0  0  0  0  0  0  0  0  0  0  0
   55.7612   -4.9869   -3.8739 C   0  0  0  0  0  0  0  0  0  0  0  0
   56.2064   -4.3199   -5.4287 Cl  0  0  0  0  0  0  0  0  0  0  0  0
 22 23  3  0  0  0
 23 12  1  0  0  0
 12 13  2  0  0  0
 13 14  1  0  0  0
 14 15  2  0  0  0
 15 16  1  0  0  0
 16 10  1  0  0  0
 10  4  1  0  0  0
  4  5  2  0  0  0
  5  6  1  0  0  0
  6  7  2  0  0  0
  7  3  1  0  0  0
  3  1  1  0  0  0
  1 24  1  0  0  0
 24 25  1  0  0  0
 25 26  1  0  0  0
 26 27  1  0  0  0
 27 28  1  0  0  0
 28 29  1  0  0  0
 29 30  1  0  0  0
 30 31  1  0  0  0
 31 32  1  0  0  0
 32 33  1  0  0  0
 33 34  1  0  0  0
 34 35  2  0  0  0
 34 37  1  0  0  0
 37 38  2  0  0  0
 38 39  1  0  0  0
 39 40  2  0  0  0
 40 41  1  0  0  0
 40 42  1  0  0  0
 42 43  2  0  0  0
 43 44  1  0  0  0
  7  8  1  0  0  0
  8  9  2  0  0  0
 16 17  2  0  0  0
 17 18  1  0  0  0
 18 19  2  0  0  0
 19 20  1  0  0  0
 20 21  2  0  0  0
 21 12  1  0  0  0
 20 15  1  0  0  0
  9  4  1  0  0  0
 32 27  1  0  0  0
 43 37  1  0  0  0
 10 11  1  0  0  0
  1  2  1  0  0  0
 33 36  1  0  0  0
M  END
> <minimizedAffinity>
-7.97305

> <CNNscore>
0.1472572386

> <CNNaffinity>
6.4804091454

> <CNN_VS>
0.9542871714

> <CNNaffinity_variance>
0.5926750898

$$$$
[H]c1c(N([H])c2c([H])c([H])c([H])c3c([H])c(C#N)c([H])c([H])c23)nnc(C([H])([H])N([H])C([H])([H])C([H])([H])O[C@]2([H])C([H])([H])C([H])([H])C([H])([H])C([H])([H])[C@]2([H])N([H])C(=O)c2c([H])c([H])c(Cl)c([H])c2Cl)c1[H]


 44 48  0  0  0  0  0  0  0  0999 V2000
   49.8102   -4.4266   -3.6557 N   0  0  0  0  0  0  0  0  0  0  0  0
   48.9729   -4.6092   -3.0300 H   0  0  0  0  0  0  0  0  0  0  0  0
   49.8307   -5.4378   -4.6926 C   0  0  0  0  0  0  0  0  0  0  0  0
   52.7402   -4.5315   -7.6685 C   0  0  0  0  0  0  0  0  0  0  0  0
   52.6779   -5.8256   -7.1180 C   0  0  0  0  0  0  0  0  0  0  0  0
   51.7369   -6.0943   -6.1671 C   0  0  0  0  0  0  0  0  0  0  0  0
   50.8409   -5.1494   -5.7202 C   0  0  0  0  0  0  0  0  0  0  0  0
   50.9539   -3.9271   -6.2892 N   0  0  0  0  0  0  0  0  0  0  0  0
   51.8615   -3.6666   -7.2069 N   0  0  0  0  0  0  0  0  0  0  0  0
   53.7286   -4.2658   -8.6129 N   0  0  0  0  0  0  0  0  0  0  0  0
   53.4271   -3.7204   -9.4962 H   0  0  0  0  0  0  0  0  0  0  0  0
   57.6389   -4.1282  -11.7853 C   0  0  0  0  0  0  0  0  0  0  0  0
   56.3035   -3.8405  -11.8923 C   0  0  0  0  0  0  0  0  0  0  0  0
   55.4479   -4.0043  -10.7918 C   0  0  0  0  0  0  0  0  0  0  0  0
   55.9452   -4.4503   -9.6129 C   0  0  0  0  0  0  0  0  0  0  0  0
   55.0882   -4.6234   -8.5043 C   0  0  0  0  0  0  0  0  0  0  0  0
   55.6418   -5.0843   -7.3404 C   0  0  0  0  0  0  0  0  0  0  0  0
   57.0180   -5.3691   -7.2748 C   0  0  0  0  0  0  0  0  0  0  0  0
   57.8441   -5.2007   -8.3470 C   0  0  0  0  0  0  0  0  0  0  0  0
   57.3098   -4.7377   -9.5278 C   0  0  0  0  0  0  0  0  0  0  0  0
   58.1715   -4.5822  -10.6043 C   0  0  0  0  0  0  0  0  0  0  0  0
   59.1791   -3.8059  -13.8626 N   0  0  0  0  0  0  0  0  0  0  0  0
   58.5011   -3.9519  -12.9316 C   0  0  0  0  0  0  0  0  0  0  0  0
   50.9833   -4.5544   -2.8111 C   0  0  0  0  0  0  0  0  0  0  0  0
   51.1256   -5.9294   -2.2414 C   0  0  0  0  0  0  0  0  0  0  0  0
   52.4100   -6.1983   -1.7901 O   0  0  0  0  0  0  0  0  0  0  0  0
   53.2788   -6.6539   -2.7397 C   0  0  0  0  0  0  0  0  0  0  0  0
   53.6818   -8.0877   -2.5151 C   0  0  0  0  0  0  0  0  0  0  0  0
   54.8609   -8.4675   -3.3835 C   0  0  0  0  0  0  0  0  0  0  0  0
   55.0544   -7.4974   -4.5245 C   0  0  0  0  0  0  0  0  0  0  0  0
   55.3349   -6.0963   -4.0378 C   0  0  0  0  0  0  0  0  0  0  0  0
   54.4650   -5.7255   -2.8477 C   0  0  0  0  0  0  0  0  0  0  0  0
   55.2350   -5.6526   -1.6298 N   0  0  0  0  0  0  0  0  0  0  0  0
   56.4415   -4.9256   -1.5011 C   0  0  0  0  0  0  0  0  0  0  0  0
   56.8774   -4.3026   -2.5063 O   0  0  0  0  0  0  0  0  0  0  0  0
   54.9098   -6.1586   -0.7650 H   0  0  0  0  0  0  0  0  0  0  0  0
   57.2158   -4.8493   -0.2804 C   0  0  0  0  0  0  0  0  0  0  0  0
   58.6000   -4.8689   -0.3275 C   0  0  0  0  0  0  0  0  0  0  0  0
   59.3685   -4.7986    0.8206 C   0  0  0  0  0  0  0  0  0  0  0  0
   58.7795   -4.7048    2.0743 C   0  0  0  0  0  0  0  0  0  0  0  0
   59.7618   -4.6161    3.5191 Cl  0  0  0  0  0  0  0  0  0  0  0  0
   57.4016   -4.6855    2.1188 C   0  0  0  0  0  0  0  0  0  0  0  0
   56.6390   -4.7559    0.9729 C   0  0  0  0  0  0  0  0  0  0  0  0
   54.8911   -4.7300    1.0400 Cl  0  0  0  0  0  0  0  0  0  0  0  0
 22 23  3  0  0  0
 23 12  1  0  0  0
 12 13  2  0  0  0
 13 14  1  0  0  0
 14 15  2  0  0  0
 15 16  1  0  0  0
 16 10  1  0  0  0
 10  4  1  0  0  0
  4  5  2  0  0  0
  5  6  1  0  0  0
  6  7  2  0  0  0
  7  3  1  0  0  0
  3  1  1  0  0  0
  1 24  1  0  0  0
 24 25  1  0  0  0
 25 26  1  0  0  0
 26 27  1  0  0  0
 27 28  1  0  0  0
 28 29  1  0  0  0
 29 30  1  0  0  0
 30 31  1  0  0  0
 31 32  1  0  0  0
 32 33  1  0  0  0
 33 34  1  0  0  0
 34 35  2  0  0  0
 34 37  1  0  0  0
 37 38  2  0  0  0
 38 39  1  0  0  0
 39 40  2  0  0  0
 40 41  1  0  0  0
 40 42  1  0  0  0
 42 43  2  0  0  0
 43 44  1  0  0  0
  7  8  1  0  0  0
  8  9  2  0  0  0
 16 17  2  0  0  0
 17 18  1  0  0  0
 18 19  2  0  0  0
 19 20  1  0  0  0
 20 21  2  0  0  0
 21 12  1  0  0  0
 20 15  1  0  0  0
  9  4  1  0  0  0
 32 27  1  0  0  0
 43 37  1  0  0  0
 10 11  1  0  0  0
  1  2  1  0  0  0
 33 36  1  0  0  0
M  END
> <minimizedAffinity>
-9.52461

> <CNNscore>
0.1424923837

> <CNNaffinity>
7.2547149658

> <CNN_VS>
1.0337415934

> <CNNaffinity_variance>
0.1964814961

$$$$
[H]c1c(N([H])c2c([H])c([H])c([H])c3c([H])c(C#N)c([H])c([H])c23)nnc(C([H])([H])N([H])C([H])([H])C([H])([H])O[C@]2([H])C([H])([H])C([H])([H])C([H])([H])C([H])([H])[C@]2([H])N([H])C(=O)c2c([H])c([H])c(Cl)c([H])c2Cl)c1[H]


 44 48  0  0  0  0  0  0  0  0999 V2000
   57.5976   -3.9807  -13.1911 N   0  0  0  0  0  0  0  0  0  0  0  0
   58.4132   -3.8922  -13.8640 H   0  0  0  0  0  0  0  0  0  0  0  0
   58.1062   -4.4596  -11.9222 C   0  0  0  0  0  0  0  0  0  0  0  0
   55.0380   -4.4981   -8.9681 C   0  0  0  0  0  0  0  0  0  0  0  0
   56.3484   -4.8817   -8.6251 C   0  0  0  0  0  0  0  0  0  0  0  0
   57.3160   -4.8604   -9.5870 C   0  0  0  0  0  0  0  0  0  0  0  0
   57.0649   -4.4779  -10.8854 C   0  0  0  0  0  0  0  0  0  0  0  0
   55.7866   -4.1214  -11.1489 N   0  0  0  0  0  0  0  0  0  0  0  0
   54.8520   -4.1415  -10.2216 N   0  0  0  0  0  0  0  0  0  0  0  0
   54.0562   -4.5586   -7.9823 N   0  0  0  0  0  0  0  0  0  0  0  0
   54.2073   -5.2725   -7.1847 H   0  0  0  0  0  0  0  0  0  0  0  0
   50.0768   -4.3917   -4.8986 C   0  0  0  0  0  0  0  0  0  0  0  0
   51.1764   -5.2020   -5.0060 C   0  0  0  0  0  0  0  0  0  0  0  0
   52.1247   -4.9875   -6.0183 C   0  0  0  0  0  0  0  0  0  0  0  0
   51.9528   -3.9707   -6.8974 C   0  0  0  0  0  0  0  0  0  0  0  0
   52.8998   -3.7541   -7.9219 C   0  0  0  0  0  0  0  0  0  0  0  0
   52.6726   -2.7182   -8.7871 C   0  0  0  0  0  0  0  0  0  0  0  0
   51.5291   -1.9116   -8.6415 C   0  0  0  0  0  0  0  0  0  0  0  0
   50.6157   -2.1224   -7.6507 C   0  0  0  0  0  0  0  0  0  0  0  0
   50.8236   -3.1581   -6.7684 C   0  0  0  0  0  0  0  0  0  0  0  0
   49.8753   -3.3541   -5.7746 C   0  0  0  0  0  0  0  0  0  0  0  0
   48.3299   -4.8095   -3.0104 N   0  0  0  0  0  0  0  0  0  0  0  0
   49.1135   -4.6313   -3.8482 C   0  0  0  0  0  0  0  0  0  0  0  0
   56.6984   -4.9614  -13.7702 C   0  0  0  0  0  0  0  0  0  0  0  0
   56.1907   -4.5433  -15.1130 C   0  0  0  0  0  0  0  0  0  0  0  0
   56.6827   -3.3107  -15.5182 O   0  0  0  0  0  0  0  0  0  0  0  0
   57.2357   -3.2847  -16.7663 C   0  0  0  0  0  0  0  0  0  0  0  0
   58.3723   -2.3024  -16.8752 C   0  0  0  0  0  0  0  0  0  0  0  0
   58.7589   -2.0705  -18.3194 C   0  0  0  0  0  0  0  0  0  0  0  0
   58.2318   -3.1584  -19.2243 C   0  0  0  0  0  0  0  0  0  0  0  0
   56.7241   -3.2308  -19.2073 C   0  0  0  0  0  0  0  0  0  0  0  0
   56.1644   -3.0537  -17.8052 C   0  0  0  0  0  0  0  0  0  0  0  0
   55.5008   -1.7813  -17.6556 N   0  0  0  0  0  0  0  0  0  0  0  0
   54.1570   -1.5435  -18.0273 C   0  0  0  0  0  0  0  0  0  0  0  0
   53.4931   -2.4945  -18.5208 O   0  0  0  0  0  0  0  0  0  0  0  0
   56.0170   -0.9580  -17.2491 H   0  0  0  0  0  0  0  0  0  0  0  0
   53.4877   -0.2687  -17.8774 C   0  0  0  0  0  0  0  0  0  0  0  0
   52.3575   -0.1608  -17.0840 C   0  0  0  0  0  0  0  0  0  0  0  0
   51.6946    1.0423  -16.9211 C   0  0  0  0  0  0  0  0  0  0  0  0
   52.1384    2.1977  -17.5502 C   0  0  0  0  0  0  0  0  0  0  0  0
   51.2919    3.7135  -17.3362 Cl  0  0  0  0  0  0  0  0  0  0  0  0
   53.2635    2.0879  -18.3395 C   0  0  0  0  0  0  0  0  0  0  0  0
   53.9214    0.8875  -18.4998 C   0  0  0  0  0  0  0  0  0  0  0  0
   55.3487    0.7589  -19.5030 Cl  0  0  0  0  0  0  0  0  0  0  0  0
 22 23  3  0  0  0
 23 12  1  0  0  0
 12 13  2  0  0  0
 13 14  1  0  0  0
 14 15  2  0  0  0
 15 16  1  0  0  0
 16 10  1  0  0  0
 10  4  1  0  0  0
  4  5  2  0  0  0
  5  6  1  0  0  0
  6  7  2  0  0  0
  7  3  1  0  0  0
  3  1  1  0  0  0
  1 24  1  0  0  0
 24 25  1  0  0  0
 25 26  1  0  0  0
 26 27  1  0  0  0
 27 28  1  0  0  0
 28 29  1  0  0  0
 29 30  1  0  0  0
 30 31  1  0  0  0
 31 32  1  0  0  0
 32 33  1  0  0  0
 33 34  1  0  0  0
 34 35  2  0  0  0
 34 37  1  0  0  0
 37 38  2  0  0  0
 38 39  1  0  0  0
 39 40  2  0  0  0
 40 41  1  0  0  0
 40 42  1  0  0  0
 42 43  2  0  0  0
 43 44  1  0  0  0
  7  8  1  0  0  0
  8  9  2  0  0  0
 16 17  2  0  0  0
 17 18  1  0  0  0
 18 19  2  0  0  0
 19 20  1  0  0  0
 20 21  2  0  0  0
 21 12  1  0  0  0
 20 15  1  0  0  0
  9  4  1  0  0  0
 32 27  1  0  0  0
 43 37  1  0  0  0
 10 11  1  0  0  0
  1  2  1  0  0  0
 33 36  1  0  0  0
M  END
> <minimizedAffinity>
-9.66339

> <CNNscore>
0.1387674809

> <CNNaffinity>
6.9578962326

> <CNN_VS>
0.9655297399

> <CNNaffinity_variance>
0.0583071932

$$$$
[H]c1c(N([H])c2c([H])c([H])c([H])c3c([H])c(C#N)c([H])c([H])c23)nnc(C([H])([H])N([H])C([H])([H])C([H])([H])O[C@]2([H])C([H])([H])C([H])([H])C([H])([H])C([H])([H])[C@]2([H])N([H])C(=O)c2c([H])c([H])c(Cl)c([H])c2Cl)c1[H]


 44 48  0  0  0  0  0  0  0  0999 V2000
   57.7595   -3.8095  -14.7727 N   0  0  0  0  0  0  0  0  0  0  0  0
   56.9937   -3.0802  -14.6859 H   0  0  0  0  0  0  0  0  0  0  0  0
   58.5689   -3.7625  -13.5724 C   0  0  0  0  0  0  0  0  0  0  0  0
   56.1994   -4.4621  -10.1028 C   0  0  0  0  0  0  0  0  0  0  0  0
   57.5477   -4.8662  -10.1259 C   0  0  0  0  0  0  0  0  0  0  0  0
   58.2887   -4.6307  -11.2473 C   0  0  0  0  0  0  0  0  0  0  0  0
   57.7720   -4.0117  -12.3631 C   0  0  0  0  0  0  0  0  0  0  0  0
   56.4715   -3.6485  -12.2759 N   0  0  0  0  0  0  0  0  0  0  0  0
   55.7555   -3.8752  -11.1944 N   0  0  0  0  0  0  0  0  0  0  0  0
   55.4491   -4.7411   -8.9631 N   0  0  0  0  0  0  0  0  0  0  0  0
   55.8895   -5.4134   -8.2402 H   0  0  0  0  0  0  0  0  0  0  0  0
   52.1005   -5.5519   -5.2887 C   0  0  0  0  0  0  0  0  0  0  0  0
   53.3072   -6.1048   -5.6289 C   0  0  0  0  0  0  0  0  0  0  0  0
   54.0065   -5.6518   -6.7584 C   0  0  0  0  0  0  0  0  0  0  0  0
   53.4853   -4.6593   -7.5196 C   0  0  0  0  0  0  0  0  0  0  0  0
   54.1809   -4.2040   -8.6607 C   0  0  0  0  0  0  0  0  0  0  0  0
   53.6050   -3.2051   -9.3982 C   0  0  0  0  0  0  0  0  0  0  0  0
   52.3633   -2.6668   -9.0139 C   0  0  0  0  0  0  0  0  0  0  0  0
   51.6932   -3.1079   -7.9107 C   0  0  0  0  0  0  0  0  0  0  0  0
   52.2534   -4.1114   -7.1534 C   0  0  0  0  0  0  0  0  0  0  0  0
   51.5472   -4.5455   -6.0407 C   0  0  0  0  0  0  0  0  0  0  0  0
   50.8461   -6.4126   -3.1728 N   0  0  0  0  0  0  0  0  0  0  0  0
   51.3983   -6.0341   -4.1213 C   0  0  0  0  0  0  0  0  0  0  0  0
   58.5542   -3.4280  -15.9254 C   0  0  0  0  0  0  0  0  0  0  0  0
   58.0346   -2.1934  -16.5898 C   0  0  0  0  0  0  0  0  0  0  0  0
   57.4393   -2.4486  -17.8170 O   0  0  0  0  0  0  0  0  0  0  0  0
   57.8892   -1.6831  -18.8543 C   0  0  0  0  0  0  0  0  0  0  0  0
   58.8669   -0.6262  -18.4119 C   0  0  0  0  0  0  0  0  0  0  0  0
   59.1092    0.3885  -19.5076 C   0  0  0  0  0  0  0  0  0  0  0  0
   58.6728   -0.1273  -20.8581 C   0  0  0  0  0  0  0  0  0  0  0  0
   57.1953   -0.4338  -20.8991 C   0  0  0  0  0  0  0  0  0  0  0  0
   56.7220   -1.1116  -19.6236 C   0  0  0  0  0  0  0  0  0  0  0  0
   55.9009   -0.2315  -18.8281 N   0  0  0  0  0  0  0  0  0  0  0  0
   54.4881   -0.2886  -18.7918 C   0  0  0  0  0  0  0  0  0  0  0  0
   53.9038   -1.1566  -19.4945 O   0  0  0  0  0  0  0  0  0  0  0  0
   56.3457    0.5100  -18.2265 H   0  0  0  0  0  0  0  0  0  0  0  0
   53.6612    0.5919  -17.9940 C   0  0  0  0  0  0  0  0  0  0  0  0
   52.9077    0.0865  -16.9475 C   0  0  0  0  0  0  0  0  0  0  0  0
   52.1069    0.9010  -16.1672 C   0  0  0  0  0  0  0  0  0  0  0  0
   52.0259    2.2668  -16.4029 C   0  0  0  0  0  0  0  0  0  0  0  0
   51.0101    3.2868  -15.4091 Cl  0  0  0  0  0  0  0  0  0  0  0  0
   52.7768    2.7677  -17.4452 C   0  0  0  0  0  0  0  0  0  0  0  0
   53.5734    1.9533  -18.2207 C   0  0  0  0  0  0  0  0  0  0  0  0
   54.5229    2.5988  -19.5406 Cl  0  0  0  0  0  0  0  0  0  0  0  0
 22 23  3  0  0  0
 23 12  1  0  0  0
 12 13  2  0  0  0
 13 14  1  0  0  0
 14 15  2  0  0  0
 15 16  1  0  0  0
 16 10  1  0  0  0
 10  4  1  0  0  0
  4  5  2  0  0  0
  5  6  1  0  0  0
  6  7  2  0  0  0
  7  3  1  0  0  0
  3  1  1  0  0  0
  1 24  1  0  0  0
 24 25  1  0  0  0
 25 26  1  0  0  0
 26 27  1  0  0  0
 27 28  1  0  0  0
 28 29  1  0  0  0
 29 30  1  0  0  0
 30 31  1  0  0  0
 31 32  1  0  0  0
 32 33  1  0  0  0
 33 34  1  0  0  0
 34 35  2  0  0  0
 34 37  1  0  0  0
 37 38  2  0  0  0
 38 39  1  0  0  0
 39 40  2  0  0  0
 40 41  1  0  0  0
 40 42  1  0  0  0
 42 43  2  0  0  0
 43 44  1  0  0  0
  7  8  1  0  0  0
  8  9  2  0  0  0
 16 17  2  0  0  0
 17 18  1  0  0  0
 18 19  2  0  0  0
 19 20  1  0  0  0
 20 21  2  0  0  0
 21 12  1  0  0  0
 20 15  1  0  0  0
  9  4  1  0  0  0
 32 27  1  0  0  0
 43 37  1  0  0  0
 10 11  1  0  0  0
  1  2  1  0  0  0
 33 36  1  0  0  0
M  END
> <minimizedAffinity>
-8.61293

> <CNNscore>
0.1300856322

> <CNNaffinity>
6.4791145325

> <CNN_VS>
0.8428397179

> <CNNaffinity_variance>
0.2015635222

$$$$
[H]c1c(N([H])c2c([H])c([H])c([H])c3c([H])c(C#N)c([H])c([H])c23)nnc(C([H])([H])N([H])C([H])([H])C([H])([H])O[C@]2([H])C([H])([H])C([H])([H])C([H])([H])C([H])([H])[C@]2([H])N([H])C(=O)c2c([H])c([H])c(Cl)c([H])c2Cl)c1[H]


 44 48  0  0  0  0  0  0  0  0999 V2000
   54.9499   -5.3308    0.8975 N   0  0  0  0  0  0  0  0  0  0  0  0
   54.5542   -4.3963    1.2073 H   0  0  0  0  0  0  0  0  0  0  0  0
   53.8881   -6.3144    0.9547 C   0  0  0  0  0  0  0  0  0  0  0  0
   51.4123   -6.2845   -2.5111 C   0  0  0  0  0  0  0  0  0  0  0  0
   52.3900   -5.2866   -2.3375 C   0  0  0  0  0  0  0  0  0  0  0  0
   53.1731   -5.3164   -1.2204 C   0  0  0  0  0  0  0  0  0  0  0  0
   53.0478   -6.2854   -0.2505 C   0  0  0  0  0  0  0  0  0  0  0  0
   52.0905   -7.2141   -0.4778 N   0  0  0  0  0  0  0  0  0  0  0  0
   51.3343   -7.1865   -1.5553 N   0  0  0  0  0  0  0  0  0  0  0  0
   50.5995   -6.2189   -3.6400 N   0  0  0  0  0  0  0  0  0  0  0  0
   50.2913   -7.1589   -4.0760 H   0  0  0  0  0  0  0  0  0  0  0  0
   51.9238   -3.6283   -7.7519 C   0  0  0  0  0  0  0  0  0  0  0  0
   52.4099   -4.7424   -7.1196 C   0  0  0  0  0  0  0  0  0  0  0  0
   51.8060   -5.2167   -5.9447 C   0  0  0  0  0  0  0  0  0  0  0  0
   50.7328   -4.5685   -5.4304 C   0  0  0  0  0  0  0  0  0  0  0  0
   50.1252   -5.0370   -4.2453 C   0  0  0  0  0  0  0  0  0  0  0  0
   49.0496   -4.3396   -3.7654 C   0  0  0  0  0  0  0  0  0  0  0  0
   48.5841   -3.1994   -4.4455 C   0  0  0  0  0  0  0  0  0  0  0  0
   49.1724   -2.7490   -5.5907 C   0  0  0  0  0  0  0  0  0  0  0  0
   50.2553   -3.4345   -6.0923 C   0  0  0  0  0  0  0  0  0  0  0  0
   50.8386   -2.9504   -7.2545 C   0  0  0  0  0  0  0  0  0  0  0  0
   53.0897   -2.7883   -9.9260 N   0  0  0  0  0  0  0  0  0  0  0  0
   52.5617   -3.1581   -8.9605 C   0  0  0  0  0  0  0  0  0  0  0  0
   55.9921   -5.6659    1.8499 C   0  0  0  0  0  0  0  0  0  0  0  0
   57.1455   -6.3666    1.2063 C   0  0  0  0  0  0  0  0  0  0  0  0
   56.7752   -7.5360    0.5576 O   0  0  0  0  0  0  0  0  0  0  0  0
   57.8046   -8.3663    0.2182 C   0  0  0  0  0  0  0  0  0  0  0  0
   59.1413   -7.6729    0.2490 C   0  0  0  0  0  0  0  0  0  0  0  0
   60.2090   -8.5124   -0.4177 C   0  0  0  0  0  0  0  0  0  0  0  0
   59.7870   -9.9561   -0.5515 C   0  0  0  0  0  0  0  0  0  0  0  0
   58.5499  -10.1100   -1.4027 C   0  0  0  0  0  0  0  0  0  0  0  0
   57.5224   -9.0289   -1.1092 C   0  0  0  0  0  0  0  0  0  0  0  0
   57.4175   -8.0871   -2.1971 N   0  0  0  0  0  0  0  0  0  0  0  0
   56.1921   -7.6865   -2.7787 C   0  0  0  0  0  0  0  0  0  0  0  0
   55.1234   -8.1780   -2.3261 O   0  0  0  0  0  0  0  0  0  0  0  0
   58.2844   -7.6519   -2.6079 H   0  0  0  0  0  0  0  0  0  0  0  0
   56.0830   -6.7408   -3.8693 C   0  0  0  0  0  0  0  0  0  0  0  0
   55.7941   -7.1806   -5.1505 C   0  0  0  0  0  0  0  0  0  0  0  0
   55.6842   -6.3028   -6.2140 C   0  0  0  0  0  0  0  0  0  0  0  0
   55.8601   -4.9369   -6.0388 C   0  0  0  0  0  0  0  0  0  0  0  0
   55.7183   -3.8366   -7.3914 Cl  0  0  0  0  0  0  0  0  0  0  0  0
   56.1478   -4.5013   -4.7627 C   0  0  0  0  0  0  0  0  0  0  0  0
   56.2567   -5.3787   -3.7054 C   0  0  0  0  0  0  0  0  0  0  0  0
   56.6213   -4.8159   -2.0897 Cl  0  0  0  0  0  0  0  0  0  0  0  0
 22 23  3  0  0  0
 23 12  1  0  0  0
 12 13  2  0  0  0
 13 14  1  0  0  0
 14 15  2  0  0  0
 15 16  1  0  0  0
 16 10  1  0  0  0
 10  4  1  0  0  0
  4  5  2  0  0  0
  5  6  1  0  0  0
  6  7  2  0  0  0
  7  3  1  0  0  0
  3  1  1  0  0  0
  1 24  1  0  0  0
 24 25  1  0  0  0
 25 26  1  0  0  0
 26 27  1  0  0  0
 27 28  1  0  0  0
 28 29  1  0  0  0
 29 30  1  0  0  0
 30 31  1  0  0  0
 31 32  1  0  0  0
 32 33  1  0  0  0
 33 34  1  0  0  0
 34 35  2  0  0  0
 34 37  1  0  0  0
 37 38  2  0  0  0
 38 39  1  0  0  0
 39 40  2  0  0  0
 40 41  1  0  0  0
 40 42  1  0  0  0
 42 43  2  0  0  0
 43 44  1  0  0  0
  7  8  1  0  0  0
  8  9  2  0  0  0
 16 17  2  0  0  0
 17 18  1  0  0  0
 18 19  2  0  0  0
 19 20  1  0  0  0
 20 21  2  0  0  0
 21 12  1  0  0  0
 20 15  1  0  0  0
  9  4  1  0  0  0
 32 27  1  0  0  0
 43 37  1  0  0  0
 10 11  1  0  0  0
  1  2  1  0  0  0
 33 36  1  0  0  0
M  END
> <minimizedAffinity>
-9.47989

> <CNNscore>
0.1285162568

> <CNNaffinity>
7.0114202499

> <CNN_VS>
0.9010815024

> <CNNaffinity_variance>
0.6216418147

$$$$
[H]Oc1c([H])c([H])c(N2C([H])([H])C3([H])C([H])([H])N([H])C([H])([H])C3([H])C([H])([H])[C@@]2([H])N([H])C(=O)N([H])c2c([H])c([H])c3c(c2[H])C([H])([H])N([H])C([H])([H])C([H])([H])C2([H])C([H])([H])C([H])([H])C([H])([H])C([H])([H])C32[H])c([H])c1[H]


 41 46  0  0  0  0  0  0  0  0999 V2000
   57.6311   -5.6024   -7.9633 N   0  0  0  0  0  0  0  0  0  0  0  0
   58.8920   -6.2395   -8.2367 C   0  0  0  0  0  0  0  0  0  0  0  0
   59.5452   -6.5648   -7.2318 O   0  0  0  0  0  0  0  0  0  0  0  0
   59.3282   -6.4652   -9.5302 N   0  0  0  0  0  0  0  0  0  0  0  0
   57.0646   -5.3291   -8.8097 H   0  0  0  0  0  0  0  0  0  0  0  0
   58.6678   -6.1281  -10.3074 H   0  0  0  0  0  0  0  0  0  0  0  0
   60.5190   -7.0804   -9.9508 C   0  0  0  0  0  0  0  0  0  0  0  0
   60.7265   -8.4460   -9.7264 C   0  0  0  0  0  0  0  0  0  0  0  0
   61.8509   -9.1390  -10.0798 C   0  0  0  0  0  0  0  0  0  0  0  0
   62.8522   -8.4555  -10.6999 C   0  0  0  0  0  0  0  0  0  0  0  0
   63.9219   -9.4196  -10.9730 C   0  0  0  0  0  0  0  0  0  0  0  0
   63.5630  -10.7538  -11.4829 C   0  0  0  0  0  0  0  0  0  0  0  0
   64.5469  -11.7744  -10.9158 C   0  0  0  0  0  0  0  0  0  0  0  0
   64.6181  -11.7643   -9.4287 C   0  0  0  0  0  0  0  0  0  0  0  0
   64.7996  -10.4167   -8.8255 C   0  0  0  0  0  0  0  0  0  0  0  0
   65.0079   -9.3861   -9.9117 C   0  0  0  0  0  0  0  0  0  0  0  0
   65.0409   -7.9831   -9.3386 C   0  0  0  0  0  0  0  0  0  0  0  0
   65.5012   -7.0290  -10.3885 C   0  0  0  0  0  0  0  0  0  0  0  0
   64.6669   -5.8520  -10.5478 N   0  0  0  0  0  0  0  0  0  0  0  0
   63.6087   -6.0565  -11.5572 C   0  0  0  0  0  0  0  0  0  0  0  0
   62.7019   -7.0719  -10.9524 C   0  0  0  0  0  0  0  0  0  0  0  0
   61.5491   -6.4195  -10.5763 C   0  0  0  0  0  0  0  0  0  0  0  0
   64.2603   -5.5232   -9.6447 H   0  0  0  0  0  0  0  0  0  0  0  0
   56.0518   -4.4953   -6.4564 N   0  0  0  0  0  0  0  0  0  0  0  0
   55.9093   -4.0926   -5.0352 C   0  0  0  0  0  0  0  0  0  0  0  0
   55.5061   -5.3398   -4.3452 C   0  0  0  0  0  0  0  0  0  0  0  0
   55.4025   -5.2738   -2.8689 C   0  0  0  0  0  0  0  0  0  0  0  0
   55.5853   -6.6492   -2.4569 N   0  0  0  0  0  0  0  0  0  0  0  0
   56.3603   -7.3057   -3.4987 C   0  0  0  0  0  0  0  0  0  0  0  0
   56.7459   -6.2521   -4.4608 C   0  0  0  0  0  0  0  0  0  0  0  0
   56.9570   -6.6790   -5.8664 C   0  0  0  0  0  0  0  0  0  0  0  0
   57.1691   -5.3635   -6.6587 C   0  0  0  0  0  0  0  0  0  0  0  0
   54.6362   -7.0671   -2.3550 H   0  0  0  0  0  0  0  0  0  0  0  0
   51.9816   -2.7751   -9.8991 O   0  0  0  0  0  0  0  0  0  0  0  0
   52.9890   -3.1832   -9.0559 C   0  0  0  0  0  0  0  0  0  0  0  0
   54.2221   -2.5682   -9.0774 C   0  0  0  0  0  0  0  0  0  0  0  0
   55.2596   -2.9671   -8.2293 C   0  0  0  0  0  0  0  0  0  0  0  0
   55.0950   -3.9970   -7.3311 C   0  0  0  0  0  0  0  0  0  0  0  0
   53.8210   -4.5973   -7.3418 C   0  0  0  0  0  0  0  0  0  0  0  0
   52.8003   -4.2119   -8.1692 C   0  0  0  0  0  0  0  0  0  0  0  0
   51.9337   -3.2407  -10.8183 H   0  0  0  0  0  0  0  0  0  0  0  0
 34 35  1  0  0  0
 35 36  2  0  0  0
 36 37  1  0  0  0
 37 38  2  0  0  0
 38 39  1  0  0  0
 39 40  2  0  0  0
 38 24  1  0  0  0
 24 25  1  0  0  0
 25 26  1  0  0  0
 26 27  1  0  0  0
 27 28  1  0  0  0
 28 29  1  0  0  0
 29 30  1  0  0  0
 30 31  1  0  0  0
 31 32  1  0  0  0
 32  1  1  0  0  0
  1  2  1  0  0  0
  2  3  2  0  0  0
  2  4  1  0  0  0
  4  7  1  0  0  0
  7  8  2  0  0  0
  8  9  1  0  0  0
  9 10  2  0  0  0
 10 11  1  0  0  0
 11 12  1  0  0  0
 12 13  1  0  0  0
 13 14  1  0  0  0
 14 15  1  0  0  0
 15 16  1  0  0  0
 16 17  1  0  0  0
 17 18  1  0  0  0
 18 19  1  0  0  0
 19 20  1  0  0  0
 20 21  1  0  0  0
 21 22  2  0  0  0
 40 35  1  0  0  0
 32 24  1  0  0  0
 22  7  1  0  0  0
 30 26  1  0  0  0
 21 10  1  0  0  0
 16 11  1  0  0  0
 34 41  1  0  0  0
 28 33  1  0  0  0
  1  5  1  0  0  0
  4  6  1  0  0  0
 19 23  1  0  0  0
M  END
> <minimizedAffinity>
-4.67945

> <CNNscore>
0.3776927888

> <CNNaffinity>
6.3621706963

> <CNN_VS>
2.4029459953

> <CNNaffinity_variance>
0.4179602563

$$$$
[H]Oc1c([H])c([H])c(N2C([H])([H])C3([H])C([H])([H])N([H])C([H])([H])C3([H])C([H])([H])[C@@]2([H])N([H])C(=O)N([H])c2c([H])c([H])c3c(c2[H])C([H])([H])N([H])C([H])([H])C([H])([H])C2([H])C([H])([H])C([H])([H])C([H])([H])C([H])([H])C32[H])c([H])c1[H]


 41 46  0  0  0  0  0  0  0  0999 V2000
   56.7860   -5.7069   -7.3993 N   0  0  0  0  0  0  0  0  0  0  0  0
   58.1823   -6.0087   -7.5714 C   0  0  0  0  0  0  0  0  0  0  0  0
   58.7696   -6.3835   -6.5433 O   0  0  0  0  0  0  0  0  0  0  0  0
   58.8080   -5.8849   -8.7992 N   0  0  0  0  0  0  0  0  0  0  0  0
   56.2758   -5.3952   -8.2680 H   0  0  0  0  0  0  0  0  0  0  0  0
   58.1843   -5.5445   -9.6049 H   0  0  0  0  0  0  0  0  0  0  0  0
   60.1489   -6.1512   -9.1220 C   0  0  0  0  0  0  0  0  0  0  0  0
   60.5616   -6.1808  -10.4588 C   0  0  0  0  0  0  0  0  0  0  0  0
   61.8344   -6.4442  -10.8832 C   0  0  0  0  0  0  0  0  0  0  0  0
   62.7815   -6.6980   -9.9384 C   0  0  0  0  0  0  0  0  0  0  0  0
   64.0407   -6.9375  -10.6494 C   0  0  0  0  0  0  0  0  0  0  0  0
   64.3951   -6.0642  -11.7810 C   0  0  0  0  0  0  0  0  0  0  0  0
   65.1439   -6.8929  -12.8219 C   0  0  0  0  0  0  0  0  0  0  0  0
   64.3879   -8.0913  -13.2791 C   0  0  0  0  0  0  0  0  0  0  0  0
   63.8382   -8.9334  -12.1830 C   0  0  0  0  0  0  0  0  0  0  0  0
   64.3157   -8.4185  -10.8442 C   0  0  0  0  0  0  0  0  0  0  0  0
   63.6495   -9.1591   -9.7016 C   0  0  0  0  0  0  0  0  0  0  0  0
   64.3280   -8.8085   -8.4205 C   0  0  0  0  0  0  0  0  0  0  0  0
   63.4334   -8.4165   -7.3467 N   0  0  0  0  0  0  0  0  0  0  0  0
   63.1985   -6.9588   -7.3267 C   0  0  0  0  0  0  0  0  0  0  0  0
   62.4247   -6.6845   -8.5697 C   0  0  0  0  0  0  0  0  0  0  0  0
   61.1281   -6.4136   -8.1937 C   0  0  0  0  0  0  0  0  0  0  0  0
   62.5298   -8.9381   -7.3667 H   0  0  0  0  0  0  0  0  0  0  0  0
   54.9189   -5.1026   -5.9366 N   0  0  0  0  0  0  0  0  0  0  0  0
   54.5478   -5.0724   -4.5001 C   0  0  0  0  0  0  0  0  0  0  0  0
   54.1760   -6.4731   -4.1937 C   0  0  0  0  0  0  0  0  0  0  0  0
   53.8680   -6.7798   -2.7775 C   0  0  0  0  0  0  0  0  0  0  0  0
   54.1240   -8.2009   -2.6775 N   0  0  0  0  0  0  0  0  0  0  0  0
   55.0919   -8.5323   -3.7121 C   0  0  0  0  0  0  0  0  0  0  0  0
   55.5015   -7.2527   -4.3279 C   0  0  0  0  0  0  0  0  0  0  0  0
   55.9405   -7.3061   -5.7445 C   0  0  0  0  0  0  0  0  0  0  0  0
   56.1311   -5.8255   -6.1626 C   0  0  0  0  0  0  0  0  0  0  0  0
   53.2141   -8.6871   -2.8246 H   0  0  0  0  0  0  0  0  0  0  0  0
   51.6866   -2.3327   -9.5775 O   0  0  0  0  0  0  0  0  0  0  0  0
   52.4676   -3.0227   -8.6797 C   0  0  0  0  0  0  0  0  0  0  0  0
   51.8957   -3.7951   -7.6920 C   0  0  0  0  0  0  0  0  0  0  0  0
   52.6707   -4.5043   -6.7694 C   0  0  0  0  0  0  0  0  0  0  0  0
   54.0460   -4.4621   -6.8064 C   0  0  0  0  0  0  0  0  0  0  0  0
   54.5889   -3.6621   -7.8304 C   0  0  0  0  0  0  0  0  0  0  0  0
   53.8363   -2.9650   -8.7375 C   0  0  0  0  0  0  0  0  0  0  0  0
   51.4183   -1.3727   -9.3119 H   0  0  0  0  0  0  0  0  0  0  0  0
 34 35  1  0  0  0
 35 36  2  0  0  0
 36 37  1  0  0  0
 37 38  2  0  0  0
 38 39  1  0  0  0
 39 40  2  0  0  0
 38 24  1  0  0  0
 24 25  1  0  0  0
 25 26  1  0  0  0
 26 27  1  0  0  0
 27 28  1  0  0  0
 28 29  1  0  0  0
 29 30  1  0  0  0
 30 31  1  0  0  0
 31 32  1  0  0  0
 32  1  1  0  0  0
  1  2  1  0  0  0
  2  3  2  0  0  0
  2  4  1  0  0  0
  4  7  1  0  0  0
  7  8  2  0  0  0
  8  9  1  0  0  0
  9 10  2  0  0  0
 10 11  1  0  0  0
 11 12  1  0  0  0
 12 13  1  0  0  0
 13 14  1  0  0  0
 14 15  1  0  0  0
 15 16  1  0  0  0
 16 17  1  0  0  0
 17 18  1  0  0  0
 18 19  1  0  0  0
 19 20  1  0  0  0
 20 21  1  0  0  0
 21 22  2  0  0  0
 40 35  1  0  0  0
 32 24  1  0  0  0
 22  7  1  0  0  0
 30 26  1  0  0  0
 21 10  1  0  0  0
 16 11  1  0  0  0
 34 41  1  0  0  0
 28 33  1  0  0  0
  1  5  1  0  0  0
  4  6  1  0  0  0
 19 23  1  0  0  0
M  END
> <minimizedAffinity>
-5.11683

> <CNNscore>
0.3336905539

> <CNNaffinity>
6.5263085365

> <CNN_VS>
2.1777675152

> <CNNaffinity_variance>
0.5365290642

$$$$
[H]Oc1c([H])c([H])c(N2C([H])([H])C3([H])C([H])([H])N([H])C([H])([H])C3([H])C([H])([H])[C@@]2([H])N([H])C(=O)N([H])c2c([H])c([H])c3c(c2[H])C([H])([H])N([H])C([H])([H])C([H])([H])C2([H])C([H])([H])C([H])([H])C([H])([H])C([H])([H])C32[H])c([H])c1[H]


 41 46  0  0  0  0  0  0  0  0999 V2000
   56.9433   -5.0225   -8.6311 N   0  0  0  0  0  0  0  0  0  0  0  0
   57.6599   -4.9548   -9.8770 C   0  0  0  0  0  0  0  0  0  0  0  0
   56.9580   -4.7229  -10.8750 O   0  0  0  0  0  0  0  0  0  0  0  0
   59.0300   -5.1370   -9.9396 N   0  0  0  0  0  0  0  0  0  0  0  0
   57.5309   -5.2112   -7.7760 H   0  0  0  0  0  0  0  0  0  0  0  0
   59.5142   -5.3371   -9.0018 H   0  0  0  0  0  0  0  0  0  0  0  0
   59.8622   -5.0892  -11.0702 C   0  0  0  0  0  0  0  0  0  0  0  0
   61.0353   -5.8508  -11.1171 C   0  0  0  0  0  0  0  0  0  0  0  0
   61.9213   -5.8669  -12.1583 C   0  0  0  0  0  0  0  0  0  0  0  0
   61.6490   -5.0845  -13.2390 C   0  0  0  0  0  0  0  0  0  0  0  0
   62.7363   -5.2901  -14.2001 C   0  0  0  0  0  0  0  0  0  0  0  0
   63.2315   -6.6577  -14.4311 C   0  0  0  0  0  0  0  0  0  0  0  0
   64.7323   -6.5943  -14.7042 C   0  0  0  0  0  0  0  0  0  0  0  0
   65.5016   -5.9151  -13.6256 C   0  0  0  0  0  0  0  0  0  0  0  0
   64.9525   -4.5973  -13.2075 C   0  0  0  0  0  0  0  0  0  0  0  0
   63.7984   -4.2086  -14.1033 C   0  0  0  0  0  0  0  0  0  0  0  0
   63.1194   -2.9471  -13.6079 C   0  0  0  0  0  0  0  0  0  0  0  0
   62.1662   -2.4568  -14.6450 C   0  0  0  0  0  0  0  0  0  0  0  0
   60.8356   -2.1519  -14.1517 N   0  0  0  0  0  0  0  0  0  0  0  0
   59.9332   -3.3176  -14.2375 C   0  0  0  0  0  0  0  0  0  0  0  0
   60.4786   -4.2900  -13.2497 C   0  0  0  0  0  0  0  0  0  0  0  0
   59.6177   -4.3092  -12.1753 C   0  0  0  0  0  0  0  0  0  0  0  0
   60.8462   -1.7607  -13.1842 H   0  0  0  0  0  0  0  0  0  0  0  0
   54.8384   -5.3998   -7.4402 N   0  0  0  0  0  0  0  0  0  0  0  0
   53.3726   -5.4072   -7.6717 C   0  0  0  0  0  0  0  0  0  0  0  0
   52.9945   -3.9755   -7.6380 C   0  0  0  0  0  0  0  0  0  0  0  0
   51.5846   -3.6570   -7.9624 C   0  0  0  0  0  0  0  0  0  0  0  0
   51.6459   -2.2849   -8.4191 N   0  0  0  0  0  0  0  0  0  0  0  0
   52.9911   -2.0662   -8.9287 C   0  0  0  0  0  0  0  0  0  0  0  0
   53.6723   -3.3772   -8.8892 C   0  0  0  0  0  0  0  0  0  0  0  0
   55.1477   -3.3563   -8.7303 C   0  0  0  0  0  0  0  0  0  0  0  0
   55.5533   -4.8409   -8.5446 C   0  0  0  0  0  0  0  0  0  0  0  0
   51.4368   -1.6790   -7.5975 H   0  0  0  0  0  0  0  0  0  0  0  0
   56.6787   -7.0848   -2.4251 O   0  0  0  0  0  0  0  0  0  0  0  0
   56.2196   -6.6857   -3.6589 C   0  0  0  0  0  0  0  0  0  0  0  0
   55.8198   -7.6114   -4.5982 C   0  0  0  0  0  0  0  0  0  0  0  0
   55.3500   -7.2276   -5.8580 C   0  0  0  0  0  0  0  0  0  0  0  0
   55.2661   -5.9017   -6.2179 C   0  0  0  0  0  0  0  0  0  0  0  0
   55.6841   -4.9897   -5.2295 C   0  0  0  0  0  0  0  0  0  0  0  0
   56.1449   -5.3582   -3.9938 C   0  0  0  0  0  0  0  0  0  0  0  0
   57.6931   -7.2536   -2.3438 H   0  0  0  0  0  0  0  0  0  0  0  0
 34 35  1  0  0  0
 35 36  2  0  0  0
 36 37  1  0  0  0
 37 38  2  0  0  0
 38 39  1  0  0  0
 39 40  2  0  0  0
 38 24  1  0  0  0
 24 25  1  0  0  0
 25 26  1  0  0  0
 26 27  1  0  0  0
 27 28  1  0  0  0
 28 29  1  0  0  0
 29 30  1  0  0  0
 30 31  1  0  0  0
 31 32  1  0  0  0
 32  1  1  0  0  0
  1  2  1  0  0  0
  2  3  2  0  0  0
  2  4  1  0  0  0
  4  7  1  0  0  0
  7  8  2  0  0  0
  8  9  1  0  0  0
  9 10  2  0  0  0
 10 11  1  0  0  0
 11 12  1  0  0  0
 12 13  1  0  0  0
 13 14  1  0  0  0
 14 15  1  0  0  0
 15 16  1  0  0  0
 16 17  1  0  0  0
 17 18  1  0  0  0
 18 19  1  0  0  0
 19 20  1  0  0  0
 20 21  1  0  0  0
 21 22  2  0  0  0
 40 35  1  0  0  0
 32 24  1  0  0  0
 22  7  1  0  0  0
 30 26  1  0  0  0
 21 10  1  0  0  0
 16 11  1  0  0  0
 34 41  1  0  0  0
 28 33  1  0  0  0
  1  5  1  0  0  0
  4  6  1  0  0  0
 19 23  1  0  0  0
M  END
> <minimizedAffinity>
-4.93762

> <CNNscore>
0.2431961298

> <CNNaffinity>
6.2815103531

> <CNN_VS>
1.5276390314

> <CNNaffinity_variance>
0.2236306965

$$$$
[H]Oc1c([H])c([H])c(N2C([H])([H])C3([H])C([H])([H])N([H])C([H])([H])C3([H])C([H])([H])[C@@]2([H])N([H])C(=O)N([H])c2c([H])c([H])c3c(c2[H])C([H])([H])N([H])C([H])([H])C([H])([H])C2([H])C([H])([H])C([H])([H])C([H])([H])C([H])([H])C32[H])c([H])c1[H]


 41 46  0  0  0  0  0  0  0  0999 V2000
   59.4632   -6.2130   -8.5501 N   0  0  0  0  0  0  0  0  0  0  0  0
   60.4526   -7.1790   -8.9478 C   0  0  0  0  0  0  0  0  0  0  0  0
   60.3349   -7.6045  -10.1086 O   0  0  0  0  0  0  0  0  0  0  0  0
   61.4543   -7.5917   -8.0872 N   0  0  0  0  0  0  0  0  0  0  0  0
   59.5587   -5.8392   -7.5686 H   0  0  0  0  0  0  0  0  0  0  0  0
   61.4364   -7.1485   -7.1088 H   0  0  0  0  0  0  0  0  0  0  0  0
   62.4882   -8.5101   -8.3338 C   0  0  0  0  0  0  0  0  0  0  0  0
   62.4521   -9.3268   -9.4696 C   0  0  0  0  0  0  0  0  0  0  0  0
   63.3949  -10.2616   -9.7962 C   0  0  0  0  0  0  0  0  0  0  0  0
   64.4562  -10.4166   -8.9572 C   0  0  0  0  0  0  0  0  0  0  0  0
   65.3082  -11.4601   -9.5344 C   0  0  0  0  0  0  0  0  0  0  0  0
   65.5569  -11.4523  -10.9860 C   0  0  0  0  0  0  0  0  0  0  0  0
   65.6687  -12.8959  -11.4703 C   0  0  0  0  0  0  0  0  0  0  0  0
   64.4822  -13.7279  -11.1289 C   0  0  0  0  0  0  0  0  0  0  0  0
   64.0560  -13.6462   -9.7061 C   0  0  0  0  0  0  0  0  0  0  0  0
   65.0457  -12.8217   -8.9148 C   0  0  0  0  0  0  0  0  0  0  0  0
   64.5591  -12.5905   -7.4979 C   0  0  0  0  0  0  0  0  0  0  0  0
   65.6629  -12.0051   -6.6835 C   0  0  0  0  0  0  0  0  0  0  0  0
   65.2956  -10.8262   -5.9204 N   0  0  0  0  0  0  0  0  0  0  0  0
   65.5350   -9.5808   -6.6768 C   0  0  0  0  0  0  0  0  0  0  0  0
   64.5474   -9.6208   -7.7912 C   0  0  0  0  0  0  0  0  0  0  0  0
   63.5709   -8.6928   -7.5069 C   0  0  0  0  0  0  0  0  0  0  0  0
   64.3134  -10.8651   -5.5700 H   0  0  0  0  0  0  0  0  0  0  0  0
   57.2006   -5.3296   -8.8517 N   0  0  0  0  0  0  0  0  0  0  0  0
   56.1324   -5.2320   -9.8773 C   0  0  0  0  0  0  0  0  0  0  0  0
   56.5574   -4.1014  -10.7347 C   0  0  0  0  0  0  0  0  0  0  0  0
   55.7327   -3.8379  -11.9368 C   0  0  0  0  0  0  0  0  0  0  0  0
   56.6451   -3.1528  -12.8274 N   0  0  0  0  0  0  0  0  0  0  0  0
   57.9903   -3.5670  -12.4588 C   0  0  0  0  0  0  0  0  0  0  0  0
   57.8383   -4.6142  -11.4270 C   0  0  0  0  0  0  0  0  0  0  0  0
   58.9466   -4.7517  -10.4497 C   0  0  0  0  0  0  0  0  0  0  0  0
   58.4382   -5.7802   -9.4071 C   0  0  0  0  0  0  0  0  0  0  0  0
   56.4997   -2.1305  -12.6876 H   0  0  0  0  0  0  0  0  0  0  0  0
   55.6823   -4.1893   -3.5818 O   0  0  0  0  0  0  0  0  0  0  0  0
   56.0610   -4.4539   -4.8776 C   0  0  0  0  0  0  0  0  0  0  0  0
   56.3028   -3.4295   -5.7671 C   0  0  0  0  0  0  0  0  0  0  0  0
   56.6885   -3.6762   -7.0882 C   0  0  0  0  0  0  0  0  0  0  0  0
   56.8441   -4.9593   -7.5615 C   0  0  0  0  0  0  0  0  0  0  0  0
   56.5875   -5.9753   -6.6206 C   0  0  0  0  0  0  0  0  0  0  0  0
   56.2097   -5.7413   -5.3254 C   0  0  0  0  0  0  0  0  0  0  0  0
   54.6689   -4.1140   -3.4045 H   0  0  0  0  0  0  0  0  0  0  0  0
 34 35  1  0  0  0
 35 36  2  0  0  0
 36 37  1  0  0  0
 37 38  2  0  0  0
 38 39  1  0  0  0
 39 40  2  0  0  0
 38 24  1  0  0  0
 24 25  1  0  0  0
 25 26  1  0  0  0
 26 27  1  0  0  0
 27 28  1  0  0  0
 28 29  1  0  0  0
 29 30  1  0  0  0
 30 31  1  0  0  0
 31 32  1  0  0  0
 32  1  1  0  0  0
  1  2  1  0  0  0
  2  3  2  0  0  0
  2  4  1  0  0  0
  4  7  1  0  0  0
  7  8  2  0  0  0
  8  9  1  0  0  0
  9 10  2  0  0  0
 10 11  1  0  0  0
 11 12  1  0  0  0
 12 13  1  0  0  0
 13 14  1  0  0  0
 14 15  1  0  0  0
 15 16  1  0  0  0
 16 17  1  0  0  0
 17 18  1  0  0  0
 18 19  1  0  0  0
 19 20  1  0  0  0
 20 21  1  0  0  0
 21 22  2  0  0  0
 40 35  1  0  0  0
 32 24  1  0  0  0
 22  7  1  0  0  0
 30 26  1  0  0  0
 21 10  1  0  0  0
 16 11  1  0  0  0
 34 41  1  0  0  0
 28 33  1  0  0  0
  1  5  1  0  0  0
  4  6  1  0  0  0
 19 23  1  0  0  0
M  END
> <minimizedAffinity>
-4.54838

> <CNNscore>
0.2149523646

> <CNNaffinity>
5.7043008804

> <CNN_VS>
1.2261530161

> <CNNaffinity_variance>
0.4029898643

$$$$
[H]Oc1c([H])c([H])c(N2C([H])([H])C3([H])C([H])([H])N([H])C([H])([H])C3([H])C([H])([H])[C@@]2([H])N([H])C(=O)N([H])c2c([H])c([H])c3c(c2[H])C([H])([H])N([H])C([H])([H])C([H])([H])C2([H])C([H])([H])C([H])([H])C([H])([H])C([H])([H])C32[H])c([H])c1[H]


 41 46  0  0  0  0  0  0  0  0999 V2000
   56.8974   -5.7912   -8.6738 N   0  0  0  0  0  0  0  0  0  0  0  0
   58.2858   -5.5680   -8.9787 C   0  0  0  0  0  0  0  0  0  0  0  0
   58.5948   -4.3828   -9.1843 O   0  0  0  0  0  0  0  0  0  0  0  0
   59.1955   -6.6090   -9.0343 N   0  0  0  0  0  0  0  0  0  0  0  0
   56.6258   -6.7934   -8.4897 H   0  0  0  0  0  0  0  0  0  0  0  0
   58.7934   -7.5864   -8.8419 H   0  0  0  0  0  0  0  0  0  0  0  0
   60.5723   -6.5464   -9.3057 C   0  0  0  0  0  0  0  0  0  0  0  0
   61.0424   -6.6997  -10.6148 C   0  0  0  0  0  0  0  0  0  0  0  0
   62.3579   -6.6715  -10.9863 C   0  0  0  0  0  0  0  0  0  0  0  0
   63.2909   -6.4788  -10.0133 C   0  0  0  0  0  0  0  0  0  0  0  0
   64.6008   -6.4832  -10.6708 C   0  0  0  0  0  0  0  0  0  0  0  0
   64.7584   -5.7636  -11.9461 C   0  0  0  0  0  0  0  0  0  0  0  0
   65.7550   -6.5249  -12.8167 C   0  0  0  0  0  0  0  0  0  0  0  0
   65.3783   -7.9477  -13.0410 C   0  0  0  0  0  0  0  0  0  0  0  0
   65.0264   -8.6984  -11.8059 C   0  0  0  0  0  0  0  0  0  0  0  0
   65.2790   -7.8397  -10.5875 C   0  0  0  0  0  0  0  0  0  0  0  0
   64.7851   -8.5185   -9.3253 C   0  0  0  0  0  0  0  0  0  0  0  0
   65.2784   -7.7695   -8.1337 C   0  0  0  0  0  0  0  0  0  0  0  0
   64.2593   -7.4549   -7.1490 N   0  0  0  0  0  0  0  0  0  0  0  0
   63.6347   -6.1406   -7.3999 C   0  0  0  0  0  0  0  0  0  0  0  0
   62.8773   -6.3194   -8.6700 C   0  0  0  0  0  0  0  0  0  0  0  0
   61.5392   -6.3559   -8.3474 C   0  0  0  0  0  0  0  0  0  0  0  0
   63.5346   -8.2015   -7.0692 H   0  0  0  0  0  0  0  0  0  0  0  0
   55.7750   -3.8990   -9.7465 N   0  0  0  0  0  0  0  0  0  0  0  0
   55.0109   -2.6731   -9.4064 C   0  0  0  0  0  0  0  0  0  0  0  0
   53.6436   -3.1669   -9.1224 C   0  0  0  0  0  0  0  0  0  0  0  0
   52.6688   -2.1657   -8.6307 C   0  0  0  0  0  0  0  0  0  0  0  0
   51.6976   -2.9650   -7.9145 N   0  0  0  0  0  0  0  0  0  0  0  0
   52.3802   -4.1739   -7.4790 C   0  0  0  0  0  0  0  0  0  0  0  0
   53.8045   -4.0018   -7.8341 C   0  0  0  0  0  0  0  0  0  0  0  0
   54.5782   -5.2397   -8.1014 C   0  0  0  0  0  0  0  0  0  0  0  0
   55.9573   -4.7496   -8.6123 C   0  0  0  0  0  0  0  0  0  0  0  0
   50.9222   -3.1728   -8.5789 H   0  0  0  0  0  0  0  0  0  0  0  0
   57.5953   -4.1813  -15.0364 O   0  0  0  0  0  0  0  0  0  0  0  0
   57.1382   -4.1248  -13.7402 C   0  0  0  0  0  0  0  0  0  0  0  0
   55.9484   -4.7212  -13.3831 C   0  0  0  0  0  0  0  0  0  0  0  0
   55.4655   -4.6758  -12.0717 C   0  0  0  0  0  0  0  0  0  0  0  0
   56.1601   -4.0298  -11.0744 C   0  0  0  0  0  0  0  0  0  0  0  0
   57.3698   -3.4347  -11.4819 C   0  0  0  0  0  0  0  0  0  0  0  0
   57.8490   -3.4753  -12.7639 C   0  0  0  0  0  0  0  0  0  0  0  0
   57.2982   -3.4177  -15.6632 H   0  0  0  0  0  0  0  0  0  0  0  0
 34 35  1  0  0  0
 35 36  2  0  0  0
 36 37  1  0  0  0
 37 38  2  0  0  0
 38 39  1  0  0  0
 39 40  2  0  0  0
 38 24  1  0  0  0
 24 25  1  0  0  0
 25 26  1  0  0  0
 26 27  1  0  0  0
 27 28  1  0  0  0
 28 29  1  0  0  0
 29 30  1  0  0  0
 30 31  1  0  0  0
 31 32  1  0  0  0
 32  1  1  0  0  0
  1  2  1  0  0  0
  2  3  2  0  0  0
  2  4  1  0  0  0
  4  7  1  0  0  0
  7  8  2  0  0  0
  8  9  1  0  0  0
  9 10  2  0  0  0
 10 11  1  0  0  0
 11 12  1  0  0  0
 12 13  1  0  0  0
 13 14  1  0  0  0
 14 15  1  0  0  0
 15 16  1  0  0  0
 16 17  1  0  0  0
 17 18  1  0  0  0
 18 19  1  0  0  0
 19 20  1  0  0  0
 20 21  1  0  0  0
 21 22  2  0  0  0
 40 35  1  0  0  0
 32 24  1  0  0  0
 22  7  1  0  0  0
 30 26  1  0  0  0
 21 10  1  0  0  0
 16 11  1  0  0  0
 34 41  1  0  0  0
 28 33  1  0  0  0
  1  5  1  0  0  0
  4  6  1  0  0  0
 19 23  1  0  0  0
M  END
> <minimizedAffinity>
-5.44730

> <CNNscore>
0.2013278902

> <CNNaffinity>
6.0137472153

> <CNN_VS>
1.2107350826

> <CNNaffinity_variance>
0.0635497719

$$$$
[H]Oc1c([H])c([H])c(N2C([H])([H])C3([H])C([H])([H])N([H])C([H])([H])C3([H])C([H])([H])[C@@]2([H])N([H])C(=O)N([H])c2c([H])c([H])c3c(c2[H])C([H])([H])N([H])C([H])([H])C([H])([H])C2([H])C([H])([H])C([H])([H])C([H])([H])C([H])([H])C32[H])c([H])c1[H]


 41 46  0  0  0  0  0  0  0  0999 V2000
   56.5066   -5.5022   -9.1262 N   0  0  0  0  0  0  0  0  0  0  0  0
   56.8618   -5.4224   -7.7342 C   0  0  0  0  0  0  0  0  0  0  0  0
   57.8287   -4.6856   -7.4799 O   0  0  0  0  0  0  0  0  0  0  0  0
   56.1660   -6.1217   -6.7640 N   0  0  0  0  0  0  0  0  0  0  0  0
   55.6817   -6.1191   -9.3523 H   0  0  0  0  0  0  0  0  0  0  0  0
   55.3541   -6.7273   -7.1219 H   0  0  0  0  0  0  0  0  0  0  0  0
   56.3856   -6.1349   -5.3766 C   0  0  0  0  0  0  0  0  0  0  0  0
   57.4819   -6.8202   -4.8410 C   0  0  0  0  0  0  0  0  0  0  0  0
   57.7792   -6.9095   -3.5095 C   0  0  0  0  0  0  0  0  0  0  0  0
   56.9500   -6.2853   -2.6280 C   0  0  0  0  0  0  0  0  0  0  0  0
   57.4914   -6.5273   -1.2876 C   0  0  0  0  0  0  0  0  0  0  0  0
   58.9453   -6.4213   -1.0785 C   0  0  0  0  0  0  0  0  0  0  0  0
   59.3642   -7.4485   -0.0296 C   0  0  0  0  0  0  0  0  0  0  0  0
   58.9671   -8.8414   -0.3741 C   0  0  0  0  0  0  0  0  0  0  0  0
   57.5433   -8.9993   -0.7749 C   0  0  0  0  0  0  0  0  0  0  0  0
   56.8057   -7.6920   -0.5947 C   0  0  0  0  0  0  0  0  0  0  0  0
   55.3938   -7.7783   -1.1396 C   0  0  0  0  0  0  0  0  0  0  0  0
   54.6240   -6.5732   -0.7160 C   0  0  0  0  0  0  0  0  0  0  0  0
   53.9105   -5.9007   -1.7864 N   0  0  0  0  0  0  0  0  0  0  0  0
   54.7270   -4.8443   -2.4171 C   0  0  0  0  0  0  0  0  0  0  0  0
   55.8235   -5.5778   -3.1090 C   0  0  0  0  0  0  0  0  0  0  0  0
   55.5675   -5.5177   -4.4605 C   0  0  0  0  0  0  0  0  0  0  0  0
   53.5440   -6.5647   -2.5032 H   0  0  0  0  0  0  0  0  0  0  0  0
   58.5952   -5.0416  -10.3163 N   0  0  0  0  0  0  0  0  0  0  0  0
   59.2300   -4.0010  -11.1628 C   0  0  0  0  0  0  0  0  0  0  0  0
   58.6553   -4.2302  -12.5086 C   0  0  0  0  0  0  0  0  0  0  0  0
   59.0196   -3.2500  -13.5579 C   0  0  0  0  0  0  0  0  0  0  0  0
   57.9315   -3.3527  -14.5068 N   0  0  0  0  0  0  0  0  0  0  0  0
   56.7698   -3.8291  -13.7716 C   0  0  0  0  0  0  0  0  0  0  0  0
   57.1630   -3.8696  -12.3475 C   0  0  0  0  0  0  0  0  0  0  0  0
   56.4693   -4.8655  -11.4934 C   0  0  0  0  0  0  0  0  0  0  0  0
   57.1990   -4.8013  -10.1271 C   0  0  0  0  0  0  0  0  0  0  0  0
   58.2301   -4.0266  -15.2434 H   0  0  0  0  0  0  0  0  0  0  0  0
   62.1432   -8.9020   -8.3451 O   0  0  0  0  0  0  0  0  0  0  0  0
   61.2624   -7.9660   -8.8354 C   0  0  0  0  0  0  0  0  0  0  0  0
   60.3696   -8.2897   -9.8340 C   0  0  0  0  0  0  0  0  0  0  0  0
   59.4660   -7.3539  -10.3466 C   0  0  0  0  0  0  0  0  0  0  0  0
   59.4282   -6.0614   -9.8748 C   0  0  0  0  0  0  0  0  0  0  0  0
   60.3563   -5.7732   -8.8555 C   0  0  0  0  0  0  0  0  0  0  0  0
   61.2439   -6.6844   -8.3485 C   0  0  0  0  0  0  0  0  0  0  0  0
   63.0585   -8.9647   -8.8169 H   0  0  0  0  0  0  0  0  0  0  0  0
 34 35  1  0  0  0
 35 36  2  0  0  0
 36 37  1  0  0  0
 37 38  2  0  0  0
 38 39  1  0  0  0
 39 40  2  0  0  0
 38 24  1  0  0  0
 24 25  1  0  0  0
 25 26  1  0  0  0
 26 27  1  0  0  0
 27 28  1  0  0  0
 28 29  1  0  0  0
 29 30  1  0  0  0
 30 31  1  0  0  0
 31 32  1  0  0  0
 32  1  1  0  0  0
  1  2  1  0  0  0
  2  3  2  0  0  0
  2  4  1  0  0  0
  4  7  1  0  0  0
  7  8  2  0  0  0
  8  9  1  0  0  0
  9 10  2  0  0  0
 10 11  1  0  0  0
 11 12  1  0  0  0
 12 13  1  0  0  0
 13 14  1  0  0  0
 14 15  1  0  0  0
 15 16  1  0  0  0
 16 17  1  0  0  0
 17 18  1  0  0  0
 18 19  1  0  0  0
 19 20  1  0  0  0
 20 21  1  0  0  0
 21 22  2  0  0  0
 40 35  1  0  0  0
 32 24  1  0  0  0
 22  7  1  0  0  0
 30 26  1  0  0  0
 21 10  1  0  0  0
 16 11  1  0  0  0
 34 41  1  0  0  0
 28 33  1  0  0  0
  1  5  1  0  0  0
  4  6  1  0  0  0
 19 23  1  0  0  0
M  END
> <minimizedAffinity>
-4.28853

> <CNNscore>
0.1950119436

> <CNNaffinity>
6.0382151604

> <CNN_VS>
1.1775240898

> <CNNaffinity_variance>
0.3445964456

$$$$
[H]Oc1c([H])c([H])c(N2C([H])([H])C3([H])C([H])([H])N([H])C([H])([H])C3([H])C([H])([H])[C@@]2([H])N([H])C(=O)N([H])c2c([H])c([H])c3c(c2[H])C([H])([H])N([H])C([H])([H])C([H])([H])C2([H])C([H])([H])C([H])([H])C([H])([H])C([H])([H])C32[H])c([H])c1[H]


 41 46  0  0  0  0  0  0  0  0999 V2000
   57.5526   -5.7343   -7.5132 N   0  0  0  0  0  0  0  0  0  0  0  0
   58.6536   -5.7902   -8.4379 C   0  0  0  0  0  0  0  0  0  0  0  0
   58.3810   -5.4498   -9.6008 O   0  0  0  0  0  0  0  0  0  0  0  0
   59.9162   -6.1955   -8.0430 N   0  0  0  0  0  0  0  0  0  0  0  0
   57.7751   -6.0137   -6.5209 H   0  0  0  0  0  0  0  0  0  0  0  0
   60.0127   -6.4688   -7.0086 H   0  0  0  0  0  0  0  0  0  0  0  0
   61.0817   -6.2896   -8.8213 C   0  0  0  0  0  0  0  0  0  0  0  0
   60.9957   -6.5396  -10.1955 C   0  0  0  0  0  0  0  0  0  0  0  0
   62.0634   -6.6651  -11.0403 C   0  0  0  0  0  0  0  0  0  0  0  0
   63.3122   -6.5373  -10.5125 C   0  0  0  0  0  0  0  0  0  0  0  0
   64.2617   -6.7050  -11.6164 C   0  0  0  0  0  0  0  0  0  0  0  0
   63.9750   -6.0532  -12.9055 C   0  0  0  0  0  0  0  0  0  0  0  0
   64.4907   -6.9474  -14.0304 C   0  0  0  0  0  0  0  0  0  0  0  0
   63.9383   -8.3293  -13.9879 C   0  0  0  0  0  0  0  0  0  0  0  0
   64.0283   -8.9928  -12.6596 C   0  0  0  0  0  0  0  0  0  0  0  0
   64.8026   -8.1220  -11.6964 C   0  0  0  0  0  0  0  0  0  0  0  0
   64.7787   -8.6980  -10.2944 C   0  0  0  0  0  0  0  0  0  0  0  0
   65.7547   -7.9627   -9.4392 C   0  0  0  0  0  0  0  0  0  0  0  0
   65.2247   -7.5059   -8.1675 N   0  0  0  0  0  0  0  0  0  0  0  0
   64.6646   -6.1426   -8.2592 C   0  0  0  0  0  0  0  0  0  0  0  0
   63.4638   -6.2860   -9.1287 C   0  0  0  0  0  0  0  0  0  0  0  0
   62.3557   -6.1682   -8.3198 C   0  0  0  0  0  0  0  0  0  0  0  0
   64.5267   -8.1677   -7.7627 H   0  0  0  0  0  0  0  0  0  0  0  0
   55.1392   -5.7265   -7.1057 N   0  0  0  0  0  0  0  0  0  0  0  0
   53.8549   -5.5023   -7.8147 C   0  0  0  0  0  0  0  0  0  0  0  0
   53.7273   -4.0278   -7.8731 C   0  0  0  0  0  0  0  0  0  0  0  0
   52.5792   -3.4943   -8.6425 C   0  0  0  0  0  0  0  0  0  0  0  0
   53.0136   -2.1655   -9.0172 N   0  0  0  0  0  0  0  0  0  0  0  0
   54.4683   -2.1847   -9.0413 C   0  0  0  0  0  0  0  0  0  0  0  0
   54.8726   -3.5872   -8.8095 C   0  0  0  0  0  0  0  0  0  0  0  0
   56.1922   -3.8018   -8.1653 C   0  0  0  0  0  0  0  0  0  0  0  0
   56.2634   -5.3261   -7.8924 C   0  0  0  0  0  0  0  0  0  0  0  0
   52.6441   -1.5083   -8.2978 H   0  0  0  0  0  0  0  0  0  0  0  0
   54.8089   -7.5087   -1.8056 O   0  0  0  0  0  0  0  0  0  0  0  0
   54.8853   -7.0860   -3.1124 C   0  0  0  0  0  0  0  0  0  0  0  0
   54.9722   -7.9938   -4.1455 C   0  0  0  0  0  0  0  0  0  0  0  0
   55.0508   -7.5858   -5.4806 C   0  0  0  0  0  0  0  0  0  0  0  0
   55.0454   -6.2529   -5.8239 C   0  0  0  0  0  0  0  0  0  0  0  0
   54.9552   -5.3598   -4.7388 C   0  0  0  0  0  0  0  0  0  0  0  0
   54.8777   -5.7520   -3.4291 C   0  0  0  0  0  0  0  0  0  0  0  0
   55.7043   -7.6306   -1.3079 H   0  0  0  0  0  0  0  0  0  0  0  0
 34 35  1  0  0  0
 35 36  2  0  0  0
 36 37  1  0  0  0
 37 38  2  0  0  0
 38 39  1  0  0  0
 39 40  2  0  0  0
 38 24  1  0  0  0
 24 25  1  0  0  0
 25 26  1  0  0  0
 26 27  1  0  0  0
 27 28  1  0  0  0
 28 29  1  0  0  0
 29 30  1  0  0  0
 30 31  1  0  0  0
 31 32  1  0  0  0
 32  1  1  0  0  0
  1  2  1  0  0  0
  2  3  2  0  0  0
  2  4  1  0  0  0
  4  7  1  0  0  0
  7  8  2  0  0  0
  8  9  1  0  0  0
  9 10  2  0  0  0
 10 11  1  0  0  0
 11 12  1  0  0  0
 12 13  1  0  0  0
 13 14  1  0  0  0
 14 15  1  0  0  0
 15 16  1  0  0  0
 16 17  1  0  0  0
 17 18  1  0  0  0
 18 19  1  0  0  0
 19 20  1  0  0  0
 20 21  1  0  0  0
 21 22  2  0  0  0
 40 35  1  0  0  0
 32 24  1  0  0  0
 22  7  1  0  0  0
 30 26  1  0  0  0
 21 10  1  0  0  0
 16 11  1  0  0  0
 34 41  1  0  0  0
 28 33  1  0  0  0
  1  5  1  0  0  0
  4  6  1  0  0  0
 19 23  1  0  0  0
M  END
> <minimizedAffinity>
-7.71165

> <CNNscore>
0.1948091537

> <CNNaffinity>
6.2046136856

> <CNN_VS>
1.2087155581

> <CNNaffinity_variance>
0.2042802870

$$$$
[H]Oc1c([H])c([H])c(N2C([H])([H])C3([H])C([H])([H])N([H])C([H])([H])C3([H])C([H])([H])[C@@]2([H])N([H])C(=O)N([H])c2c([H])c([H])c3c(c2[H])C([H])([H])N([H])C([H])([H])C([H])([H])C2([H])C([H])([H])C([H])([H])C([H])([H])C([H])([H])C32[H])c([H])c1[H]


 41 46  0  0  0  0  0  0  0  0999 V2000
   55.4403   -3.4766   -9.5603 N   0  0  0  0  0  0  0  0  0  0  0  0
   55.8242   -3.6957  -10.9296 C   0  0  0  0  0  0  0  0  0  0  0  0
   54.9160   -4.1057  -11.6709 O   0  0  0  0  0  0  0  0  0  0  0  0
   57.1146   -3.4614  -11.3703 N   0  0  0  0  0  0  0  0  0  0  0  0
   56.2021   -3.1208   -8.9239 H   0  0  0  0  0  0  0  0  0  0  0  0
   57.8036   -3.1139  -10.6229 H   0  0  0  0  0  0  0  0  0  0  0  0
   57.6317   -3.6167  -12.6671 C   0  0  0  0  0  0  0  0  0  0  0  0
   59.0144   -3.6054  -12.8827 C   0  0  0  0  0  0  0  0  0  0  0  0
   59.6212   -3.7324  -14.1013 C   0  0  0  0  0  0  0  0  0  0  0  0
   58.8262   -3.8830  -15.1966 C   0  0  0  0  0  0  0  0  0  0  0  0
   59.7147   -4.0031  -16.3561 C   0  0  0  0  0  0  0  0  0  0  0  0
   60.9203   -4.8415  -16.2438 C   0  0  0  0  0  0  0  0  0  0  0  0
   62.0326   -4.2122  -17.0792 C   0  0  0  0  0  0  0  0  0  0  0  0
   62.3204   -2.7984  -16.7121 C   0  0  0  0  0  0  0  0  0  0  0  0
   61.1206   -1.9230  -16.6270 C   0  0  0  0  0  0  0  0  0  0  0  0
   59.8931   -2.6801  -17.0804 C   0  0  0  0  0  0  0  0  0  0  0  0
   58.6333   -1.8667  -16.8590 C   0  0  0  0  0  0  0  0  0  0  0  0
   57.4877   -2.5291  -17.5471 C   0  0  0  0  0  0  0  0  0  0  0  0
   56.3036   -2.7026  -16.7256 N   0  0  0  0  0  0  0  0  0  0  0  0
   56.3032   -4.0014  -16.0230 C   0  0  0  0  0  0  0  0  0  0  0  0
   57.4202   -3.9001  -15.0427 C   0  0  0  0  0  0  0  0  0  0  0  0
   56.8577   -3.7681  -13.7929 C   0  0  0  0  0  0  0  0  0  0  0  0
   56.1628   -1.9167  -16.0536 H   0  0  0  0  0  0  0  0  0  0  0  0
   53.9249   -4.6516   -8.0392 N   0  0  0  0  0  0  0  0  0  0  0  0
   52.4937   -5.0182   -7.8993 C   0  0  0  0  0  0  0  0  0  0  0  0
   51.8530   -3.7839   -7.3896 C   0  0  0  0  0  0  0  0  0  0  0  0
   50.3773   -3.8102   -7.2620 C   0  0  0  0  0  0  0  0  0  0  0  0
   50.0084   -2.4124   -7.3324 N   0  0  0  0  0  0  0  0  0  0  0  0
   51.0579   -1.7327   -8.0764 C   0  0  0  0  0  0  0  0  0  0  0  0
   51.9774   -2.7842   -8.5592 C   0  0  0  0  0  0  0  0  0  0  0  0
   53.3926   -2.3877   -8.7654 C   0  0  0  0  0  0  0  0  0  0  0  0
   54.1367   -3.7080   -9.0917 C   0  0  0  0  0  0  0  0  0  0  0  0
   49.9370   -2.0647   -6.3527 H   0  0  0  0  0  0  0  0  0  0  0  0
   57.1947   -7.3191   -4.3554 O   0  0  0  0  0  0  0  0  0  0  0  0
   56.4044   -6.6542   -5.2641 C   0  0  0  0  0  0  0  0  0  0  0  0
   56.7575   -5.4058   -5.7286 C   0  0  0  0  0  0  0  0  0  0  0  0
   55.9689   -4.7127   -6.6520 C   0  0  0  0  0  0  0  0  0  0  0  0
   54.7990   -5.2488   -7.1402 C   0  0  0  0  0  0  0  0  0  0  0  0
   54.4758   -6.5251   -6.6402 C   0  0  0  0  0  0  0  0  0  0  0  0
   55.2432   -7.2098   -5.7361 C   0  0  0  0  0  0  0  0  0  0  0  0
   56.9908   -7.1513   -3.3582 H   0  0  0  0  0  0  0  0  0  0  0  0
 34 35  1  0  0  0
 35 36  2  0  0  0
 36 37  1  0  0  0
 37 38  2  0  0  0
 38 39  1  0  0  0
 39 40  2  0  0  0
 38 24  1  0  0  0
 24 25  1  0  0  0
 25 26  1  0  0  0
 26 27  1  0  0  0
 27 28  1  0  0  0
 28 29  1  0  0  0
 29 30  1  0  0  0
 30 31  1  0  0  0
 31 32  1  0  0  0
 32  1  1  0  0  0
  1  2  1  0  0  0
  2  3  2  0  0  0
  2  4  1  0  0  0
  4  7  1  0  0  0
  7  8  2  0  0  0
  8  9  1  0  0  0
  9 10  2  0  0  0
 10 11  1  0  0  0
 11 12  1  0  0  0
 12 13  1  0  0  0
 13 14  1  0  0  0
 14 15  1  0  0  0
 15 16  1  0  0  0
 16 17  1  0  0  0
 17 18  1  0  0  0
 18 19  1  0  0  0
 19 20  1  0  0  0
 20 21  1  0  0  0
 21 22  2  0  0  0
 40 35  1  0  0  0
 32 24  1  0  0  0
 22  7  1  0  0  0
 30 26  1  0  0  0
 21 10  1  0  0  0
 16 11  1  0  0  0
 34 41  1  0  0  0
 28 33  1  0  0  0
  1  5  1  0  0  0
  4  6  1  0  0  0
 19 23  1  0  0  0
M  END
> <minimizedAffinity>
-6.42577

> <CNNscore>
0.1709960550

> <CNNaffinity>
6.5961580276

> <CNN_VS>
1.1279170513

> <CNNaffinity_variance>
0.1177338213

$$$$
[H]Oc1c([H])c([H])c(N2C([H])([H])C3([H])C([H])([H])N([H])C([H])([H])C3([H])C([H])([H])[C@@]2([H])N([H])C(=O)N([H])c2c([H])c([H])c3c(c2[H])C([H])([H])N([H])C([H])([H])C([H])([H])C2([H])C([H])([H])C([H])([H])C([H])([H])C([H])([H])C32[H])c([H])c1[H]


 41 46  0  0  0  0  0  0  0  0999 V2000
   55.0901   -4.3288   -8.2584 N   0  0  0  0  0  0  0  0  0  0  0  0
   56.1480   -4.4276   -9.2287 C   0  0  0  0  0  0  0  0  0  0  0  0
   57.2073   -4.9166   -8.8032 O   0  0  0  0  0  0  0  0  0  0  0  0
   55.9795   -4.0042  -10.5351 N   0  0  0  0  0  0  0  0  0  0  0  0
   54.1833   -3.9221   -8.6114 H   0  0  0  0  0  0  0  0  0  0  0  0
   55.0143   -3.5946  -10.7687 H   0  0  0  0  0  0  0  0  0  0  0  0
   56.9074   -4.0468  -11.5889 C   0  0  0  0  0  0  0  0  0  0  0  0
   58.2684   -3.8356  -11.3413 C   0  0  0  0  0  0  0  0  0  0  0  0
   59.2506   -3.8400  -12.2924 C   0  0  0  0  0  0  0  0  0  0  0  0
   58.8857   -4.0677  -13.5844 C   0  0  0  0  0  0  0  0  0  0  0  0
   60.1110   -4.0276  -14.3877 C   0  0  0  0  0  0  0  0  0  0  0  0
   61.3204   -4.6919  -13.8730 C   0  0  0  0  0  0  0  0  0  0  0  0
   62.5428   -3.8884  -14.3103 C   0  0  0  0  0  0  0  0  0  0  0  0
   62.4913   -2.4598  -13.8944 C   0  0  0  0  0  0  0  0  0  0  0  0
   61.2178   -1.7640  -14.2214 C   0  0  0  0  0  0  0  0  0  0  0  0
   60.3257   -2.6716  -15.0374 C   0  0  0  0  0  0  0  0  0  0  0  0
   58.9604   -2.0496  -15.2541 C   0  0  0  0  0  0  0  0  0  0  0  0
   58.2079   -2.8451  -16.2667 C   0  0  0  0  0  0  0  0  0  0  0  0
   56.8581   -3.2071  -15.8742 N   0  0  0  0  0  0  0  0  0  0  0  0
   56.8134   -4.5135  -15.1873 C   0  0  0  0  0  0  0  0  0  0  0  0
   57.5237   -4.2861  -13.8979 C   0  0  0  0  0  0  0  0  0  0  0  0
   56.5721   -4.2715  -12.9029 C   0  0  0  0  0  0  0  0  0  0  0  0
   56.3960   -2.4690  -15.2991 H   0  0  0  0  0  0  0  0  0  0  0  0
   54.0956   -5.2104   -6.2031 N   0  0  0  0  0  0  0  0  0  0  0  0
   54.3577   -5.2967   -4.7449 C   0  0  0  0  0  0  0  0  0  0  0  0
   55.3186   -6.4166   -4.6165 C   0  0  0  0  0  0  0  0  0  0  0  0
   55.8643   -6.6664   -3.2621 C   0  0  0  0  0  0  0  0  0  0  0  0
   57.1185   -7.3400   -3.5235 N   0  0  0  0  0  0  0  0  0  0  0  0
   57.5533   -6.9292   -4.8498 C   0  0  0  0  0  0  0  0  0  0  0  0
   56.5996   -5.8945   -5.3016 C   0  0  0  0  0  0  0  0  0  0  0  0
   56.3995   -5.7677   -6.7666 C   0  0  0  0  0  0  0  0  0  0  0  0
   55.2393   -4.7522   -6.9277 C   0  0  0  0  0  0  0  0  0  0  0  0
   56.9322   -8.3641   -3.4739 H   0  0  0  0  0  0  0  0  0  0  0  0
   48.8451   -6.5650   -7.6081 O   0  0  0  0  0  0  0  0  0  0  0  0
   50.1400   -6.2395   -7.2770 C   0  0  0  0  0  0  0  0  0  0  0  0
   51.2047   -6.8875   -7.8647 C   0  0  0  0  0  0  0  0  0  0  0  0
   52.5283   -6.5723   -7.5427 C   0  0  0  0  0  0  0  0  0  0  0  0
   52.8282   -5.5964   -6.6196 C   0  0  0  0  0  0  0  0  0  0  0  0
   51.7118   -4.9596   -6.0437 C   0  0  0  0  0  0  0  0  0  0  0  0
   50.4131   -5.2628   -6.3542 C   0  0  0  0  0  0  0  0  0  0  0  0
   48.3984   -7.3059   -7.0462 H   0  0  0  0  0  0  0  0  0  0  0  0
 34 35  1  0  0  0
 35 36  2  0  0  0
 36 37  1  0  0  0
 37 38  2  0  0  0
 38 39  1  0  0  0
 39 40  2  0  0  0
 38 24  1  0  0  0
 24 25  1  0  0  0
 25 26  1  0  0  0
 26 27  1  0  0  0
 27 28  1  0  0  0
 28 29  1  0  0  0
 29 30  1  0  0  0
 30 31  1  0  0  0
 31 32  1  0  0  0
 32  1  1  0  0  0
  1  2  1  0  0  0
  2  3  2  0  0  0
  2  4  1  0  0  0
  4  7  1  0  0  0
  7  8  2  0  0  0
  8  9  1  0  0  0
  9 10  2  0  0  0
 10 11  1  0  0  0
 11 12  1  0  0  0
 12 13  1  0  0  0
 13 14  1  0  0  0
 14 15  1  0  0  0
 15 16  1  0  0  0
 16 17  1  0  0  0
 17 18  1  0  0  0
 18 19  1  0  0  0
 19 20  1  0  0  0
 20 21  1  0  0  0
 21 22  2  0  0  0
 40 35  1  0  0  0
 32 24  1  0  0  0
 22  7  1  0  0  0
 30 26  1  0  0  0
 21 10  1  0  0  0
 16 11  1  0  0  0
 34 41  1  0  0  0
 28 33  1  0  0  0
  1  5  1  0  0  0
  4  6  1  0  0  0
 19 23  1  0  0  0
M  END
> <minimizedAffinity>
-4.62892

> <CNNscore>
0.1535838991

> <CNNaffinity>
6.4217987061

> <CNN_VS>
0.9862849116

> <CNNaffinity_variance>
0.2150189877

$$$$
[H]c1nc([H])n(C([H])([H])c2c([H])c([H])c3c(C(=O)N([H])c4nc5c([H])c([H])c([H])c([H])c5s4)c(C([H])([H])[H])c([H])c([H])c3c2[H])c1[H]


 30 34  0  0  0  0  0  0  0  0999 V2000
   50.4348   -5.2982   -8.0151 C   0  0  0  0  0  0  0  0  0  0  0  0
   51.9033   -5.4026   -7.8259 C   0  0  0  0  0  0  0  0  0  0  0  0
   52.4150   -6.6106   -7.3559 C   0  0  0  0  0  0  0  0  0  0  0  0
   53.7577   -6.7791   -7.1689 C   0  0  0  0  0  0  0  0  0  0  0  0
   54.5876   -5.7191   -7.4592 C   0  0  0  0  0  0  0  0  0  0  0  0
   55.9410   -5.8933   -7.2723 C   0  0  0  0  0  0  0  0  0  0  0  0
   56.8501   -4.8729   -7.5444 C   0  0  0  0  0  0  0  0  0  0  0  0
   56.3242   -3.6849   -8.0087 C   0  0  0  0  0  0  0  0  0  0  0  0
   54.9728   -3.5054   -8.1972 C   0  0  0  0  0  0  0  0  0  0  0  0
   54.0819   -4.5247   -7.9237 C   0  0  0  0  0  0  0  0  0  0  0  0
   52.7140   -4.3372   -8.1193 C   0  0  0  0  0  0  0  0  0  0  0  0
   52.2230   -3.0717   -8.6023 C   0  0  0  0  0  0  0  0  0  0  0  0
   52.8397   -2.5832   -9.6002 O   0  0  0  0  0  0  0  0  0  0  0  0
   51.1556   -2.3203   -8.1084 N   0  0  0  0  0  0  0  0  0  0  0  0
   50.8938   -1.4185   -8.5434 H   0  0  0  0  0  0  0  0  0  0  0  0
   50.3679   -2.7381   -6.9756 C   0  0  0  0  0  0  0  0  0  0  0  0
   50.7069   -3.5298   -5.9841 N   0  0  0  0  0  0  0  0  0  0  0  0
   49.8587   -3.8034   -5.0406 C   0  0  0  0  0  0  0  0  0  0  0  0
   50.1007   -4.6329   -3.9313 C   0  0  0  0  0  0  0  0  0  0  0  0
   49.1352   -4.8498   -3.0010 C   0  0  0  0  0  0  0  0  0  0  0  0
   47.8852   -4.2896   -3.0737 C   0  0  0  0  0  0  0  0  0  0  0  0
   47.6284   -3.4749   -4.1513 C   0  0  0  0  0  0  0  0  0  0  0  0
   48.6132   -3.2388   -5.1231 C   0  0  0  0  0  0  0  0  0  0  0  0
   48.7471   -2.3413   -6.5696 S   0  0  0  0  0  0  0  0  0  0  0  0
   58.3091   -5.0731   -7.3386 C   0  0  0  0  0  0  0  0  0  0  0  0
   58.9690   -5.4431   -8.5840 N   0  0  0  0  0  0  0  0  0  0  0  0
   60.1857   -6.0107   -8.7385 C   0  0  0  0  0  0  0  0  0  0  0  0
   60.4037   -6.1828  -10.0846 C   0  0  0  0  0  0  0  0  0  0  0  0
   59.3261   -5.7212  -10.7155 N   0  0  0  0  0  0  0  0  0  0  0  0
   58.4527   -5.2717   -9.8172 C   0  0  0  0  0  0  0  0  0  0  0  0
  1  2  1  0  0  0
  2  3  2  0  0  0
  3  4  1  0  0  0
  4  5  2  0  0  0
  5  6  1  0  0  0
  6  7  2  0  0  0
  7 25  1  0  0  0
 25 26  1  0  0  0
 26 27  1  0  0  0
 27 28  2  0  0  0
 28 29  1  0  0  0
 29 30  2  0  0  0
  7  8  1  0  0  0
  8  9  2  0  0  0
  9 10  1  0  0  0
 10 11  2  0  0  0
 11 12  1  0  0  0
 12 13  2  0  0  0
 12 14  1  0  0  0
 14 16  1  0  0  0
 16 17  2  0  0  0
 17 18  1  0  0  0
 18 19  2  0  0  0
 19 20  1  0  0  0
 20 21  2  0  0  0
 21 22  1  0  0  0
 22 23  2  0  0  0
 23 24  1  0  0  0
 11  2  1  0  0  0
 24 16  1  0  0  0
 10  5  1  0  0  0
 23 18  1  0  0  0
 30 26  1  0  0  0
 14 15  1  0  0  0
M  END
> <minimizedAffinity>
-5.07075

> <CNNscore>
0.6491001844

> <CNNaffinity>
7.0968728065

> <CNN_VS>
4.6065812111

> <CNNaffinity_variance>
0.3392223418

$$$$
[H]c1nc([H])n(C([H])([H])c2c([H])c([H])c3c(C(=O)N([H])c4nc5c([H])c([H])c([H])c([H])c5s4)c(C([H])([H])[H])c([H])c([H])c3c2[H])c1[H]


 30 34  0  0  0  0  0  0  0  0999 V2000
   61.5104   -8.0798   -5.4192 C   0  0  0  0  0  0  0  0  0  0  0  0
   61.9270   -9.1645   -6.3428 C   0  0  0  0  0  0  0  0  0  0  0  0
   61.1236  -10.3007   -6.4170 C   0  0  0  0  0  0  0  0  0  0  0  0
   61.4422  -11.3325   -7.2538 C   0  0  0  0  0  0  0  0  0  0  0  0
   62.5804  -11.2140   -8.0200 C   0  0  0  0  0  0  0  0  0  0  0  0
   62.8972  -12.2546   -8.8646 C   0  0  0  0  0  0  0  0  0  0  0  0
   64.0292  -12.2141   -9.6760 C   0  0  0  0  0  0  0  0  0  0  0  0
   64.8117  -11.0811   -9.5882 C   0  0  0  0  0  0  0  0  0  0  0  0
   64.4999  -10.0384   -8.7459 C   0  0  0  0  0  0  0  0  0  0  0  0
   63.3749  -10.0908   -7.9465 C   0  0  0  0  0  0  0  0  0  0  0  0
   63.0632   -9.0296   -7.0972 C   0  0  0  0  0  0  0  0  0  0  0  0
   63.9215   -7.8736   -7.0451 C   0  0  0  0  0  0  0  0  0  0  0  0
   63.8435   -7.0814   -8.0356 O   0  0  0  0  0  0  0  0  0  0  0  0
   64.8250   -7.5200   -6.0418 N   0  0  0  0  0  0  0  0  0  0  0  0
   65.3908   -6.6567   -6.1158 H   0  0  0  0  0  0  0  0  0  0  0  0
   65.0325   -8.3232   -4.8628 C   0  0  0  0  0  0  0  0  0  0  0  0
   65.1820   -7.9340   -3.6174 N   0  0  0  0  0  0  0  0  0  0  0  0
   65.3652   -8.8053   -2.6730 C   0  0  0  0  0  0  0  0  0  0  0  0
   65.5373   -8.5155   -1.3079 C   0  0  0  0  0  0  0  0  0  0  0  0
   65.7225   -9.5115   -0.4032 C   0  0  0  0  0  0  0  0  0  0  0  0
   65.7544  -10.8392   -0.7465 C   0  0  0  0  0  0  0  0  0  0  0  0
   65.5882  -11.1437   -2.0771 C   0  0  0  0  0  0  0  0  0  0  0  0
   65.3955  -10.1285   -3.0268 C   0  0  0  0  0  0  0  0  0  0  0  0
   65.1554  -10.0297   -4.7146 S   0  0  0  0  0  0  0  0  0  0  0  0
   64.3606  -13.3441  -10.5840 C   0  0  0  0  0  0  0  0  0  0  0  0
   63.8317  -13.1148  -11.9223 N   0  0  0  0  0  0  0  0  0  0  0  0
   62.5785  -13.3531  -12.3684 C   0  0  0  0  0  0  0  0  0  0  0  0
   62.5251  -12.9889  -13.6927 C   0  0  0  0  0  0  0  0  0  0  0  0
   63.7347  -12.5409  -14.0221 N   0  0  0  0  0  0  0  0  0  0  0  0
   64.5322  -12.6129  -12.9587 C   0  0  0  0  0  0  0  0  0  0  0  0
  1  2  1  0  0  0
  2  3  2  0  0  0
  3  4  1  0  0  0
  4  5  2  0  0  0
  5  6  1  0  0  0
  6  7  2  0  0  0
  7 25  1  0  0  0
 25 26  1  0  0  0
 26 27  1  0  0  0
 27 28  2  0  0  0
 28 29  1  0  0  0
 29 30  2  0  0  0
  7  8  1  0  0  0
  8  9  2  0  0  0
  9 10  1  0  0  0
 10 11  2  0  0  0
 11 12  1  0  0  0
 12 13  2  0  0  0
 12 14  1  0  0  0
 14 16  1  0  0  0
 16 17  2  0  0  0
 17 18  1  0  0  0
 18 19  2  0  0  0
 19 20  1  0  0  0
 20 21  2  0  0  0
 21 22  1  0  0  0
 22 23  2  0  0  0
 23 24  1  0  0  0
 11  2  1  0  0  0
 24 16  1  0  0  0
 10  5  1  0  0  0
 23 18  1  0  0  0
 30 26  1  0  0  0
 14 15  1  0  0  0
M  END
> <minimizedAffinity>
-2.14146

> <CNNscore>
0.5808758736

> <CNNaffinity>
5.4119195938

> <CNN_VS>
3.1436536312

> <CNNaffinity_variance>
0.7306226492

$$$$
[H]c1nc([H])n(C([H])([H])c2c([H])c([H])c3c(C(=O)N([H])c4nc5c([H])c([H])c([H])c([H])c5s4)c(C([H])([H])[H])c([H])c([H])c3c2[H])c1[H]


 30 34  0  0  0  0  0  0  0  0999 V2000
   54.4791   -2.8334   -7.4720 C   0  0  0  0  0  0  0  0  0  0  0  0
   55.7210   -3.5727   -7.8100 C   0  0  0  0  0  0  0  0  0  0  0  0
   56.6422   -3.7992   -6.7891 C   0  0  0  0  0  0  0  0  0  0  0  0
   57.8012   -4.4818   -7.0279 C   0  0  0  0  0  0  0  0  0  0  0  0
   58.0295   -4.9381   -8.3071 C   0  0  0  0  0  0  0  0  0  0  0  0
   59.1975   -5.6283   -8.5437 C   0  0  0  0  0  0  0  0  0  0  0  0
   59.5046   -6.1264   -9.8083 C   0  0  0  0  0  0  0  0  0  0  0  0
   58.5803   -5.8921  -10.8055 C   0  0  0  0  0  0  0  0  0  0  0  0
   57.4117   -5.2028  -10.5746 C   0  0  0  0  0  0  0  0  0  0  0  0
   57.1190   -4.7140   -9.3165 C   0  0  0  0  0  0  0  0  0  0  0  0
   55.9319   -4.0188   -9.0886 C   0  0  0  0  0  0  0  0  0  0  0  0
   55.0066   -3.8007  -10.1712 C   0  0  0  0  0  0  0  0  0  0  0  0
   55.5231   -3.4552  -11.2796 O   0  0  0  0  0  0  0  0  0  0  0  0
   53.6164   -3.9226  -10.1497 N   0  0  0  0  0  0  0  0  0  0  0  0
   53.0533   -3.7395  -10.9985 H   0  0  0  0  0  0  0  0  0  0  0  0
   52.8860   -4.2958   -8.9642 C   0  0  0  0  0  0  0  0  0  0  0  0
   51.9997   -3.5994   -8.2901 N   0  0  0  0  0  0  0  0  0  0  0  0
   51.4383   -4.0977   -7.2311 C   0  0  0  0  0  0  0  0  0  0  0  0
   50.4799   -3.4548   -6.4280 C   0  0  0  0  0  0  0  0  0  0  0  0
   49.9575   -4.0739   -5.3378 C   0  0  0  0  0  0  0  0  0  0  0  0
   50.3176   -5.3396   -4.9506 C   0  0  0  0  0  0  0  0  0  0  0  0
   51.2540   -5.9856   -5.7230 C   0  0  0  0  0  0  0  0  0  0  0  0
   51.8053   -5.3623   -6.8532 C   0  0  0  0  0  0  0  0  0  0  0  0
   52.9470   -5.7550   -8.0608 S   0  0  0  0  0  0  0  0  0  0  0  0
   60.7690   -6.8703  -10.0513 C   0  0  0  0  0  0  0  0  0  0  0  0
   61.2078   -7.5667   -8.8489 N   0  0  0  0  0  0  0  0  0  0  0  0
   61.7343   -7.0283   -7.7268 C   0  0  0  0  0  0  0  0  0  0  0  0
   62.0026   -8.0538   -6.8518 C   0  0  0  0  0  0  0  0  0  0  0  0
   61.6375   -9.1839   -7.4532 N   0  0  0  0  0  0  0  0  0  0  0  0
   61.1557   -8.9005   -8.6612 C   0  0  0  0  0  0  0  0  0  0  0  0
  1  2  1  0  0  0
  2  3  2  0  0  0
  3  4  1  0  0  0
  4  5  2  0  0  0
  5  6  1  0  0  0
  6  7  2  0  0  0
  7 25  1  0  0  0
 25 26  1  0  0  0
 26 27  1  0  0  0
 27 28  2  0  0  0
 28 29  1  0  0  0
 29 30  2  0  0  0
  7  8  1  0  0  0
  8  9  2  0  0  0
  9 10  1  0  0  0
 10 11  2  0  0  0
 11 12  1  0  0  0
 12 13  2  0  0  0
 12 14  1  0  0  0
 14 16  1  0  0  0
 16 17  2  0  0  0
 17 18  1  0  0  0
 18 19  2  0  0  0
 19 20  1  0  0  0
 20 21  2  0  0  0
 21 22  1  0  0  0
 22 23  2  0  0  0
 23 24  1  0  0  0
 11  2  1  0  0  0
 24 16  1  0  0  0
 10  5  1  0  0  0
 23 18  1  0  0  0
 30 26  1  0  0  0
 14 15  1  0  0  0
M  END
> <minimizedAffinity>
-5.10480

> <CNNscore>
0.4808046222

> <CNNaffinity>
6.6299500465

> <CNN_VS>
3.1877105236

> <CNNaffinity_variance>
0.4615314901

$$$$
[H]c1nc([H])n(C([H])([H])c2c([H])c([H])c3c(C(=O)N([H])c4nc5c([H])c([H])c([H])c([H])c5s4)c(C([H])([H])[H])c([H])c([H])c3c2[H])c1[H]


 30 34  0  0  0  0  0  0  0  0999 V2000
   53.5034   -7.1808   -8.2661 C   0  0  0  0  0  0  0  0  0  0  0  0
   52.4171   -6.3694   -7.6623 C   0  0  0  0  0  0  0  0  0  0  0  0
   51.3933   -7.0428   -6.9986 C   0  0  0  0  0  0  0  0  0  0  0  0
   50.3678   -6.3578   -6.4111 C   0  0  0  0  0  0  0  0  0  0  0  0
   50.3781   -4.9833   -6.4954 C   0  0  0  0  0  0  0  0  0  0  0  0
   49.3444   -4.2955   -5.8995 C   0  0  0  0  0  0  0  0  0  0  0  0
   49.2801   -2.9041   -5.9357 C   0  0  0  0  0  0  0  0  0  0  0  0
   50.3026   -2.2557   -6.5972 C   0  0  0  0  0  0  0  0  0  0  0  0
   51.3379   -2.9379   -7.1945 C   0  0  0  0  0  0  0  0  0  0  0  0
   51.3901   -4.3173   -7.1516 C   0  0  0  0  0  0  0  0  0  0  0  0
   52.4433   -5.0024   -7.7566 C   0  0  0  0  0  0  0  0  0  0  0  0
   53.4808   -4.2706   -8.4376 C   0  0  0  0  0  0  0  0  0  0  0  0
   53.1317   -3.6829   -9.5088 O   0  0  0  0  0  0  0  0  0  0  0  0
   54.8182   -4.1295   -8.0642 N   0  0  0  0  0  0  0  0  0  0  0  0
   55.4748   -3.5727   -8.6385 H   0  0  0  0  0  0  0  0  0  0  0  0
   55.3652   -4.7456   -6.8813 C   0  0  0  0  0  0  0  0  0  0  0  0
   54.9825   -4.6130   -5.6319 N   0  0  0  0  0  0  0  0  0  0  0  0
   55.6003   -5.2479   -4.6833 C   0  0  0  0  0  0  0  0  0  0  0  0
   55.2873   -5.1887   -3.3138 C   0  0  0  0  0  0  0  0  0  0  0  0
   56.0048   -5.8985   -2.4049 C   0  0  0  0  0  0  0  0  0  0  0  0
   57.0604   -6.7046   -2.7479 C   0  0  0  0  0  0  0  0  0  0  0  0
   57.3827   -6.7761   -4.0828 C   0  0  0  0  0  0  0  0  0  0  0  0
   56.6531   -6.0500   -5.0369 C   0  0  0  0  0  0  0  0  0  0  0  0
   56.6843   -5.8349   -6.7306 S   0  0  0  0  0  0  0  0  0  0  0  0
   48.1587   -2.1729   -5.2884 C   0  0  0  0  0  0  0  0  0  0  0  0
   47.4983   -3.0027   -4.2891 N   0  0  0  0  0  0  0  0  0  0  0  0
   46.2055   -2.9556   -3.8982 C   0  0  0  0  0  0  0  0  0  0  0  0
   46.0202   -3.9180   -2.9345 C   0  0  0  0  0  0  0  0  0  0  0  0
   47.1921   -4.5249   -2.7603 N   0  0  0  0  0  0  0  0  0  0  0  0
   48.0926   -3.9790   -3.5746 C   0  0  0  0  0  0  0  0  0  0  0  0
  1  2  1  0  0  0
  2  3  2  0  0  0
  3  4  1  0  0  0
  4  5  2  0  0  0
  5  6  1  0  0  0
  6  7  2  0  0  0
  7 25  1  0  0  0
 25 26  1  0  0  0
 26 27  1  0  0  0
 27 28  2  0  0  0
 28 29  1  0  0  0
 29 30  2  0  0  0
  7  8  1  0  0  0
  8  9  2  0  0  0
  9 10  1  0  0  0
 10 11  2  0  0  0
 11 12  1  0  0  0
 12 13  2  0  0  0
 12 14  1  0  0  0
 14 16  1  0  0  0
 16 17  2  0  0  0
 17 18  1  0  0  0
 18 19  2  0  0  0
 19 20  1  0  0  0
 20 21  2  0  0  0
 21 22  1  0  0  0
 22 23  2  0  0  0
 23 24  1  0  0  0
 11  2  1  0  0  0
 24 16  1  0  0  0
 10  5  1  0  0  0
 23 18  1  0  0  0
 30 26  1  0  0  0
 14 15  1  0  0  0
M  END
> <minimizedAffinity>
-3.63826

> <CNNscore>
0.3941273093

> <CNNaffinity>
6.9963693619

> <CNN_VS>
2.7574601173

> <CNNaffinity_variance>
0.5461685061

$$$$
[H]c1nc([H])n(C([H])([H])c2c([H])c([H])c3c(C(=O)N([H])c4nc5c([H])c([H])c([H])c([H])c5s4)c(C([H])([H])[H])c([H])c([H])c3c2[H])c1[H]


 30 34  0  0  0  0  0  0  0  0999 V2000
   61.7904   -8.6394   -4.2449 C   0  0  0  0  0  0  0  0  0  0  0  0
   61.8546   -9.6129   -5.3635 C   0  0  0  0  0  0  0  0  0  0  0  0
   60.9055  -10.6329   -5.3942 C   0  0  0  0  0  0  0  0  0  0  0  0
   60.8999  -11.5568   -6.4005 C   0  0  0  0  0  0  0  0  0  0  0  0
   61.8602  -11.4480   -7.3816 C   0  0  0  0  0  0  0  0  0  0  0  0
   61.8500  -12.3793   -8.3962 C   0  0  0  0  0  0  0  0  0  0  0  0
   62.7843  -12.3399   -9.4292 C   0  0  0  0  0  0  0  0  0  0  0  0
   63.7155  -11.3229   -9.3811 C   0  0  0  0  0  0  0  0  0  0  0  0
   63.7304  -10.3898   -8.3696 C   0  0  0  0  0  0  0  0  0  0  0  0
   62.7987  -10.4398   -7.3513 C   0  0  0  0  0  0  0  0  0  0  0  0
   62.8176   -9.4897   -6.3308 C   0  0  0  0  0  0  0  0  0  0  0  0
   63.8180   -8.4529   -6.3314 C   0  0  0  0  0  0  0  0  0  0  0  0
   64.8389   -8.6684   -5.6060 O   0  0  0  0  0  0  0  0  0  0  0  0
   63.8015   -7.2448   -7.0301 N   0  0  0  0  0  0  0  0  0  0  0  0
   64.5858   -6.5741   -6.9514 H   0  0  0  0  0  0  0  0  0  0  0  0
   62.7078   -6.8545   -7.8843 C   0  0  0  0  0  0  0  0  0  0  0  0
   61.4715   -6.5575   -7.5551 N   0  0  0  0  0  0  0  0  0  0  0  0
   60.6087   -6.2274   -8.4668 C   0  0  0  0  0  0  0  0  0  0  0  0
   59.2625   -5.8896   -8.2421 C   0  0  0  0  0  0  0  0  0  0  0  0
   58.4463   -5.5589   -9.2761 C   0  0  0  0  0  0  0  0  0  0  0  0
   58.8651   -5.5309  -10.5820 C   0  0  0  0  0  0  0  0  0  0  0  0
   60.1788   -5.8583  -10.8230 C   0  0  0  0  0  0  0  0  0  0  0  0
   61.0375   -6.2028   -9.7677 C   0  0  0  0  0  0  0  0  0  0  0  0
   62.6727   -6.6615   -9.5904 S   0  0  0  0  0  0  0  0  0  0  0  0
   62.7630  -13.3511  -10.5191 C   0  0  0  0  0  0  0  0  0  0  0  0
   63.3509  -12.8182  -11.7413 N   0  0  0  0  0  0  0  0  0  0  0  0
   64.6374  -12.4635  -11.9540 C   0  0  0  0  0  0  0  0  0  0  0  0
   64.7431  -12.0134  -13.2484 C   0  0  0  0  0  0  0  0  0  0  0  0
   63.5309  -12.1024  -13.7915 N   0  0  0  0  0  0  0  0  0  0  0  0
   62.6819  -12.5878  -12.8886 C   0  0  0  0  0  0  0  0  0  0  0  0
  1  2  1  0  0  0
  2  3  2  0  0  0
  3  4  1  0  0  0
  4  5  2  0  0  0
  5  6  1  0  0  0
  6  7  2  0  0  0
  7 25  1  0  0  0
 25 26  1  0  0  0
 26 27  1  0  0  0
 27 28  2  0  0  0
 28 29  1  0  0  0
 29 30  2  0  0  0
  7  8  1  0  0  0
  8  9  2  0  0  0
  9 10  1  0  0  0
 10 11  2  0  0  0
 11 12  1  0  0  0
 12 13  2  0  0  0
 12 14  1  0  0  0
 14 16  1  0  0  0
 16 17  2  0  0  0
 17 18  1  0  0  0
 18 19  2  0  0  0
 19 20  1  0  0  0
 20 21  2  0  0  0
 21 22  1  0  0  0
 22 23  2  0  0  0
 23 24  1  0  0  0
 11  2  1  0  0  0
 24 16  1  0  0  0
 10  5  1  0  0  0
 23 18  1  0  0  0
 30 26  1  0  0  0
 14 15  1  0  0  0
M  END
> <minimizedAffinity>
-2.76275

> <CNNscore>
0.3818390369

> <CNNaffinity>
5.3496713638

> <CNN_VS>
2.0427134037

> <CNNaffinity_variance>
0.4592943788

$$$$
[H]c1nc([H])n(C([H])([H])c2c([H])c([H])c3c(C(=O)N([H])c4nc5c([H])c([H])c([H])c([H])c5s4)c(C([H])([H])[H])c([H])c([H])c3c2[H])c1[H]


 30 34  0  0  0  0  0  0  0  0999 V2000
   52.7871   -7.1188   -7.9083 C   0  0  0  0  0  0  0  0  0  0  0  0
   53.7283   -6.9212   -6.7777 C   0  0  0  0  0  0  0  0  0  0  0  0
   54.3913   -8.0410   -6.2791 C   0  0  0  0  0  0  0  0  0  0  0  0
   55.2789   -7.9296   -5.2467 C   0  0  0  0  0  0  0  0  0  0  0  0
   55.4972   -6.6778   -4.7157 C   0  0  0  0  0  0  0  0  0  0  0  0
   56.3948   -6.5685   -3.6769 C   0  0  0  0  0  0  0  0  0  0  0  0
   56.6756   -5.3390   -3.0845 C   0  0  0  0  0  0  0  0  0  0  0  0
   56.0094   -4.2425   -3.5920 C   0  0  0  0  0  0  0  0  0  0  0  0
   55.1114   -4.3460   -4.6297 C   0  0  0  0  0  0  0  0  0  0  0  0
   54.8417   -5.5707   -5.2084 C   0  0  0  0  0  0  0  0  0  0  0  0
   53.9327   -5.6683   -6.2613 C   0  0  0  0  0  0  0  0  0  0  0  0
   53.2635   -4.4880   -6.7459 C   0  0  0  0  0  0  0  0  0  0  0  0
   52.2179   -4.1444   -6.1107 O   0  0  0  0  0  0  0  0  0  0  0  0
   53.6237   -3.6792   -7.8248 N   0  0  0  0  0  0  0  0  0  0  0  0
   53.0601   -2.8491   -8.0786 H   0  0  0  0  0  0  0  0  0  0  0  0
   54.7772   -3.9464   -8.6470 C   0  0  0  0  0  0  0  0  0  0  0  0
   54.8908   -3.8772   -9.9536 N   0  0  0  0  0  0  0  0  0  0  0  0
   56.0177   -4.1600  -10.5323 C   0  0  0  0  0  0  0  0  0  0  0  0
   56.2642   -4.1234  -11.9161 C   0  0  0  0  0  0  0  0  0  0  0  0
   57.4875   -4.4408  -12.4134 C   0  0  0  0  0  0  0  0  0  0  0  0
   58.5452   -4.8107  -11.6221 C   0  0  0  0  0  0  0  0  0  0  0  0
   58.3246   -4.8528  -10.2655 C   0  0  0  0  0  0  0  0  0  0  0  0
   57.0673   -4.5284   -9.7326 C   0  0  0  0  0  0  0  0  0  0  0  0
   56.3547   -4.4422   -8.1833 S   0  0  0  0  0  0  0  0  0  0  0  0
   57.6470   -5.2338   -1.9636 C   0  0  0  0  0  0  0  0  0  0  0  0
   58.4408   -6.4496   -1.8409 N   0  0  0  0  0  0  0  0  0  0  0  0
   59.4706   -6.8472   -2.6204 C   0  0  0  0  0  0  0  0  0  0  0  0
   59.9221   -8.0537   -2.1410 C   0  0  0  0  0  0  0  0  0  0  0  0
   59.1654   -8.3626   -1.0902 N   0  0  0  0  0  0  0  0  0  0  0  0
   58.2667   -7.3992   -0.9003 C   0  0  0  0  0  0  0  0  0  0  0  0
  1  2  1  0  0  0
  2  3  2  0  0  0
  3  4  1  0  0  0
  4  5  2  0  0  0
  5  6  1  0  0  0
  6  7  2  0  0  0
  7 25  1  0  0  0
 25 26  1  0  0  0
 26 27  1  0  0  0
 27 28  2  0  0  0
 28 29  1  0  0  0
 29 30  2  0  0  0
  7  8  1  0  0  0
  8  9  2  0  0  0
  9 10  1  0  0  0
 10 11  2  0  0  0
 11 12  1  0  0  0
 12 13  2  0  0  0
 12 14  1  0  0  0
 14 16  1  0  0  0
 16 17  2  0  0  0
 17 18  1  0  0  0
 18 19  2  0  0  0
 19 20  1  0  0  0
 20 21  2  0  0  0
 21 22  1  0  0  0
 22 23  2  0  0  0
 23 24  1  0  0  0
 11  2  1  0  0  0
 24 16  1  0  0  0
 10  5  1  0  0  0
 23 18  1  0  0  0
 30 26  1  0  0  0
 14 15  1  0  0  0
M  END
> <minimizedAffinity>
-4.22483

> <CNNscore>
0.3480507135

> <CNNaffinity>
6.5049276352

> <CNN_VS>
2.2640447617

> <CNNaffinity_variance>
0.5951849818

$$$$
[H]c1nc([H])n(C([H])([H])c2c([H])c([H])c3c(C(=O)N([H])c4nc5c([H])c([H])c([H])c([H])c5s4)c(C([H])([H])[H])c([H])c([H])c3c2[H])c1[H]


 30 34  0  0  0  0  0  0  0  0999 V2000
   55.2453   -2.2939   -8.3263 C   0  0  0  0  0  0  0  0  0  0  0  0
   55.3768   -3.3430   -7.2846 C   0  0  0  0  0  0  0  0  0  0  0  0
   56.3490   -3.1665   -6.3019 C   0  0  0  0  0  0  0  0  0  0  0  0
   56.5175   -4.0878   -5.3073 C   0  0  0  0  0  0  0  0  0  0  0  0
   55.6973   -5.1941   -5.3069 C   0  0  0  0  0  0  0  0  0  0  0  0
   55.8677   -6.1195   -4.3013 C   0  0  0  0  0  0  0  0  0  0  0  0
   55.0784   -7.2652   -4.2256 C   0  0  0  0  0  0  0  0  0  0  0  0
   54.1217   -7.4220   -5.2074 C   0  0  0  0  0  0  0  0  0  0  0  0
   53.9473   -6.5006   -6.2146 C   0  0  0  0  0  0  0  0  0  0  0  0
   54.7363   -5.3688   -6.2786 C   0  0  0  0  0  0  0  0  0  0  0  0
   54.5525   -4.4378   -7.3003 C   0  0  0  0  0  0  0  0  0  0  0  0
   53.5397   -4.6582   -8.3010 C   0  0  0  0  0  0  0  0  0  0  0  0
   52.3565   -4.8164   -7.8654 O   0  0  0  0  0  0  0  0  0  0  0  0
   53.7005   -4.7185   -9.6860 N   0  0  0  0  0  0  0  0  0  0  0  0
   52.8904   -4.8824  -10.3089 H   0  0  0  0  0  0  0  0  0  0  0  0
   54.9825   -4.5686  -10.3281 C   0  0  0  0  0  0  0  0  0  0  0  0
   55.2510   -4.1411  -11.5406 N   0  0  0  0  0  0  0  0  0  0  0  0
   56.4781   -4.0743  -11.9582 C   0  0  0  0  0  0  0  0  0  0  0  0
   56.8923   -3.6359  -13.2284 C   0  0  0  0  0  0  0  0  0  0  0  0
   58.2094   -3.6075  -13.5591 C   0  0  0  0  0  0  0  0  0  0  0  0
   59.2062   -3.9946  -12.7000 C   0  0  0  0  0  0  0  0  0  0  0  0
   58.8218   -4.4268  -11.4526 C   0  0  0  0  0  0  0  0  0  0  0  0
   57.4658   -4.4633  -11.0923 C   0  0  0  0  0  0  0  0  0  0  0  0
   56.5525   -4.9045   -9.7186 S   0  0  0  0  0  0  0  0  0  0  0  0
   55.2720   -8.2570   -3.1348 C   0  0  0  0  0  0  0  0  0  0  0  0
   54.4856   -7.9051   -1.9595 N   0  0  0  0  0  0  0  0  0  0  0  0
   54.8638   -7.1442   -0.9087 C   0  0  0  0  0  0  0  0  0  0  0  0
   53.8062   -7.0769   -0.0334 C   0  0  0  0  0  0  0  0  0  0  0  0
   52.8159   -7.7910   -0.5641 N   0  0  0  0  0  0  0  0  0  0  0  0
   53.2164   -8.2960   -1.7288 C   0  0  0  0  0  0  0  0  0  0  0  0
  1  2  1  0  0  0
  2  3  2  0  0  0
  3  4  1  0  0  0
  4  5  2  0  0  0
  5  6  1  0  0  0
  6  7  2  0  0  0
  7 25  1  0  0  0
 25 26  1  0  0  0
 26 27  1  0  0  0
 27 28  2  0  0  0
 28 29  1  0  0  0
 29 30  2  0  0  0
  7  8  1  0  0  0
  8  9  2  0  0  0
  9 10  1  0  0  0
 10 11  2  0  0  0
 11 12  1  0  0  0
 12 13  2  0  0  0
 12 14  1  0  0  0
 14 16  1  0  0  0
 16 17  2  0  0  0
 17 18  1  0  0  0
 18 19  2  0  0  0
 19 20  1  0  0  0
 20 21  2  0  0  0
 21 22  1  0  0  0
 22 23  2  0  0  0
 23 24  1  0  0  0
 11  2  1  0  0  0
 24 16  1  0  0  0
 10  5  1  0  0  0
 23 18  1  0  0  0
 30 26  1  0  0  0
 14 15  1  0  0  0
M  END
> <minimizedAffinity>
-4.18210

> <CNNscore>
0.3344411552

> <CNNaffinity>
6.4474134445

> <CNN_VS>
2.1562805176

> <CNNaffinity_variance>
0.3550137579

$$$$
[H]c1nc([H])n(C([H])([H])c2c([H])c([H])c3c(C(=O)N([H])c4nc5c([H])c([H])c([H])c([H])c5s4)c(C([H])([H])[H])c([H])c([H])c3c2[H])c1[H]


 30 34  0  0  0  0  0  0  0  0999 V2000
   52.8742   -5.1107   -9.9780 C   0  0  0  0  0  0  0  0  0  0  0  0
   52.2808   -5.3589   -8.6404 C   0  0  0  0  0  0  0  0  0  0  0  0
   52.0256   -6.6796   -8.2761 C   0  0  0  0  0  0  0  0  0  0  0  0
   51.4902   -6.9806   -7.0559 C   0  0  0  0  0  0  0  0  0  0  0  0
   51.2114   -5.9391   -6.1990 C   0  0  0  0  0  0  0  0  0  0  0  0
   50.6744   -6.2461   -4.9685 C   0  0  0  0  0  0  0  0  0  0  0  0
   50.3656   -5.2528   -4.0413 C   0  0  0  0  0  0  0  0  0  0  0  0
   50.6254   -3.9519   -4.4204 C   0  0  0  0  0  0  0  0  0  0  0  0
   51.1617   -3.6395   -5.6487 C   0  0  0  0  0  0  0  0  0  0  0  0
   51.4634   -4.6333   -6.5591 C   0  0  0  0  0  0  0  0  0  0  0  0
   52.0092   -4.3101   -7.8009 C   0  0  0  0  0  0  0  0  0  0  0  0
   52.2542   -2.9321   -8.1426 C   0  0  0  0  0  0  0  0  0  0  0  0
   51.2448   -2.1618   -8.0931 O   0  0  0  0  0  0  0  0  0  0  0  0
   53.4619   -2.3431   -8.5200 N   0  0  0  0  0  0  0  0  0  0  0  0
   53.5148   -1.3337   -8.7423 H   0  0  0  0  0  0  0  0  0  0  0  0
   54.6904   -3.0892   -8.6318 C   0  0  0  0  0  0  0  0  0  0  0  0
   55.3592   -3.4166   -9.7136 N   0  0  0  0  0  0  0  0  0  0  0  0
   56.4574   -4.1028   -9.6261 C   0  0  0  0  0  0  0  0  0  0  0  0
   57.2597   -4.5130  -10.7055 C   0  0  0  0  0  0  0  0  0  0  0  0
   58.3934   -5.2310  -10.4961 C   0  0  0  0  0  0  0  0  0  0  0  0
   58.8276   -5.5990   -9.2480 C   0  0  0  0  0  0  0  0  0  0  0  0
   58.0567   -5.2075   -8.1788 C   0  0  0  0  0  0  0  0  0  0  0  0
   56.8818   -4.4652   -8.3750 C   0  0  0  0  0  0  0  0  0  0  0  0
   55.6582   -3.7864   -7.3963 S   0  0  0  0  0  0  0  0  0  0  0  0
   49.7861   -5.5970   -2.7159 C   0  0  0  0  0  0  0  0  0  0  0  0
   50.7689   -6.2617   -1.8699 N   0  0  0  0  0  0  0  0  0  0  0  0
   50.6400   -7.4406   -1.2218 C   0  0  0  0  0  0  0  0  0  0  0  0
   51.8117   -7.6805   -0.5444 C   0  0  0  0  0  0  0  0  0  0  0  0
   52.6215   -6.6532   -0.7916 N   0  0  0  0  0  0  0  0  0  0  0  0
   52.0005   -5.7897   -1.5920 C   0  0  0  0  0  0  0  0  0  0  0  0
  1  2  1  0  0  0
  2  3  2  0  0  0
  3  4  1  0  0  0
  4  5  2  0  0  0
  5  6  1  0  0  0
  6  7  2  0  0  0
  7 25  1  0  0  0
 25 26  1  0  0  0
 26 27  1  0  0  0
 27 28  2  0  0  0
 28 29  1  0  0  0
 29 30  2  0  0  0
  7  8  1  0  0  0
  8  9  2  0  0  0
  9 10  1  0  0  0
 10 11  2  0  0  0
 11 12  1  0  0  0
 12 13  2  0  0  0
 12 14  1  0  0  0
 14 16  1  0  0  0
 16 17  2  0  0  0
 17 18  1  0  0  0
 18 19  2  0  0  0
 19 20  1  0  0  0
 20 21  2  0  0  0
 21 22  1  0  0  0
 22 23  2  0  0  0
 23 24  1  0  0  0
 11  2  1  0  0  0
 24 16  1  0  0  0
 10  5  1  0  0  0
 23 18  1  0  0  0
 30 26  1  0  0  0
 14 15  1  0  0  0
M  END
> <minimizedAffinity>
-4.46565

> <CNNscore>
0.3342145085

> <CNNaffinity>
6.6311202049

> <CNN_VS>
2.2162165642

> <CNNaffinity_variance>
0.4438279271

$$$$
[H]c1nc([H])n(C([H])([H])c2c([H])c([H])c3c(C(=O)N([H])c4nc5c([H])c([H])c([H])c([H])c5s4)c(C([H])([H])[H])c([H])c([H])c3c2[H])c1[H]


 30 34  0  0  0  0  0  0  0  0999 V2000
   62.5631   -8.0042   -6.2578 C   0  0  0  0  0  0  0  0  0  0  0  0
   62.4430   -9.0977   -7.2543 C   0  0  0  0  0  0  0  0  0  0  0  0
   61.6362  -10.1871   -6.9313 C   0  0  0  0  0  0  0  0  0  0  0  0
   61.4727  -11.2236   -7.8061 C   0  0  0  0  0  0  0  0  0  0  0  0
   62.1292  -11.1573   -9.0149 C   0  0  0  0  0  0  0  0  0  0  0  0
   61.9599  -12.2024   -9.8957 C   0  0  0  0  0  0  0  0  0  0  0  0
   62.5858  -12.2132  -11.1406 C   0  0  0  0  0  0  0  0  0  0  0  0
   63.3802  -11.1260  -11.4418 C   0  0  0  0  0  0  0  0  0  0  0  0
   63.5529  -10.0791  -10.5654 C   0  0  0  0  0  0  0  0  0  0  0  0
   62.9270  -10.0804   -9.3343 C   0  0  0  0  0  0  0  0  0  0  0  0
   63.1041   -9.0152   -8.4519 C   0  0  0  0  0  0  0  0  0  0  0  0
   63.9502   -7.9088   -8.8203 C   0  0  0  0  0  0  0  0  0  0  0  0
   65.1986   -8.0934   -8.6720 O   0  0  0  0  0  0  0  0  0  0  0  0
   63.5656   -6.6632   -9.3187 N   0  0  0  0  0  0  0  0  0  0  0  0
   64.2710   -5.9423   -9.5506 H   0  0  0  0  0  0  0  0  0  0  0  0
   62.1863   -6.3018   -9.5310 C   0  0  0  0  0  0  0  0  0  0  0  0
   61.2449   -6.0878   -8.6406 N   0  0  0  0  0  0  0  0  0  0  0  0
   60.0435   -5.7712   -9.0161 C   0  0  0  0  0  0  0  0  0  0  0  0
   58.9545   -5.5186   -8.1632 C   0  0  0  0  0  0  0  0  0  0  0  0
   57.7361   -5.1940   -8.6682 C   0  0  0  0  0  0  0  0  0  0  0  0
   57.4854   -5.0916  -10.0129 C   0  0  0  0  0  0  0  0  0  0  0  0
   58.5376   -5.3350  -10.8640 C   0  0  0  0  0  0  0  0  0  0  0  0
   59.8040   -5.6717  -10.3612 C   0  0  0  0  0  0  0  0  0  0  0  0
   61.3414   -6.0446  -11.0039 S   0  0  0  0  0  0  0  0  0  0  0  0
   62.3951  -13.3474  -12.0830 C   0  0  0  0  0  0  0  0  0  0  0  0
   62.9025  -13.0193  -13.4090 N   0  0  0  0  0  0  0  0  0  0  0  0
   62.2119  -12.9674  -14.5695 C   0  0  0  0  0  0  0  0  0  0  0  0
   63.0892  -12.6176  -15.5680 C   0  0  0  0  0  0  0  0  0  0  0  0
   64.2838  -12.4652  -15.0006 N   0  0  0  0  0  0  0  0  0  0  0  0
   64.1818  -12.7058  -13.6954 C   0  0  0  0  0  0  0  0  0  0  0  0
  1  2  1  0  0  0
  2  3  2  0  0  0
  3  4  1  0  0  0
  4  5  2  0  0  0
  5  6  1  0  0  0
  6  7  2  0  0  0
  7 25  1  0  0  0
 25 26  1  0  0  0
 26 27  1  0  0  0
 27 28  2  0  0  0
 28 29  1  0  0  0
 29 30  2  0  0  0
  7  8  1  0  0  0
  8  9  2  0  0  0
  9 10  1  0  0  0
 10 11  2  0  0  0
 11 12  1  0  0  0
 12 13  2  0  0  0
 12 14  1  0  0  0
 14 16  1  0  0  0
 16 17  2  0  0  0
 17 18  1  0  0  0
 18 19  2  0  0  0
 19 20  1  0  0  0
 20 21  2  0  0  0
 21 22  1  0  0  0
 22 23  2  0  0  0
 23 24  1  0  0  0
 11  2  1  0  0  0
 24 16  1  0  0  0
 10  5  1  0  0  0
 23 18  1  0  0  0
 30 26  1  0  0  0
 14 15  1  0  0  0
M  END
> <minimizedAffinity>
-3.22103

> <CNNscore>
0.3189854026

> <CNNaffinity>
5.0968255997

> <CNN_VS>
1.6258130074

> <CNNaffinity_variance>
0.1062105447

$$$$
[H]Oc1c([H])c([H])c(C2([H])C([H])([H])N(C([H])([H])c3c([H])c([H])c([H])c4c3c([H])c([H])n4[H])C2([H])[H])c([H])c1[H]


 23 26  0  0  0  0  0  0  0  0999 V2000
   62.9319   -7.5809  -16.1736 C   0  0  0  0  0  0  0  0  0  0  0  0
   63.1978   -7.0732  -17.5589 C   0  0  0  0  0  0  0  0  0  0  0  0
   61.8011   -6.6856  -17.6489 N   0  0  0  0  0  0  0  0  0  0  0  0
   61.5228   -7.7347  -16.6547 C   0  0  0  0  0  0  0  0  0  0  0  0
   65.7534  -12.4833  -15.5013 O   0  0  0  0  0  0  0  0  0  0  0  0
   65.0562  -11.2721  -15.6492 C   0  0  0  0  0  0  0  0  0  0  0  0
   64.7619  -10.7682  -16.8991 C   0  0  0  0  0  0  0  0  0  0  0  0
   64.0764   -9.5772  -17.0214 C   0  0  0  0  0  0  0  0  0  0  0  0
   63.6616   -8.8489  -15.9308 C   0  0  0  0  0  0  0  0  0  0  0  0
   63.9478   -9.3386  -14.6924 C   0  0  0  0  0  0  0  0  0  0  0  0
   64.6410  -10.5433  -14.5546 C   0  0  0  0  0  0  0  0  0  0  0  0
   66.7835  -12.4788  -15.4502 H   0  0  0  0  0  0  0  0  0  0  0  0
   61.6220   -5.3720  -17.0916 C   0  0  0  0  0  0  0  0  0  0  0  0
   60.2178   -4.9417  -17.2801 C   0  0  0  0  0  0  0  0  0  0  0  0
   59.2019   -5.8604  -17.3692 C   0  0  0  0  0  0  0  0  0  0  0  0
   57.8883   -5.4884  -17.5469 C   0  0  0  0  0  0  0  0  0  0  0  0
   57.5656   -4.1546  -17.6404 C   0  0  0  0  0  0  0  0  0  0  0  0
   58.5800   -3.2095  -17.5526 C   0  0  0  0  0  0  0  0  0  0  0  0
   58.5021   -1.8772  -17.6157 N   0  0  0  0  0  0  0  0  0  0  0  0
   59.7541   -1.3819  -17.4804 C   0  0  0  0  0  0  0  0  0  0  0  0
   60.6440   -2.4489  -17.3273 C   0  0  0  0  0  0  0  0  0  0  0  0
   59.8819   -3.5943  -17.3758 C   0  0  0  0  0  0  0  0  0  0  0  0
   57.6650   -1.2635  -17.7441 H   0  0  0  0  0  0  0  0  0  0  0  0
  5  6  1  0  0  0
  6  7  2  0  0  0
  7  8  1  0  0  0
  8  9  2  0  0  0
  9 10  1  0  0  0
 10 11  2  0  0  0
  9  1  1  0  0  0
  1  2  1  0  0  0
  2  3  1  0  0  0
  3 13  1  0  0  0
 13 14  1  0  0  0
 14 15  2  0  0  0
 15 16  1  0  0  0
 16 17  2  0  0  0
 17 18  1  0  0  0
 18 19  1  0  0  0
 19 20  1  0  0  0
 20 21  2  0  0  0
 21 22  1  0  0  0
  3  4  1  0  0  0
 11  6  1  0  0  0
  4  1  1  0  0  0
 22 14  1  0  0  0
 22 18  2  0  0  0
  5 12  1  0  0  0
 19 23  1  0  0  0
M  END
> <minimizedAffinity>
1.54580

> <CNNscore>
0.6653805375

> <CNNaffinity>
3.7360033989

> <CNN_VS>
2.4858639240

> <CNNaffinity_variance>
0.1195502281

$$$$
[H]Oc1c([H])c([H])c(C2([H])C([H])([H])N(C([H])([H])c3c([H])c([H])c([H])c4c3c([H])c([H])n4[H])C2([H])[H])c([H])c1[H]


 23 26  0  0  0  0  0  0  0  0999 V2000
   62.0707   -5.8737  -16.0129 C   0  0  0  0  0  0  0  0  0  0  0  0
   61.7770   -6.0588  -17.4713 C   0  0  0  0  0  0  0  0  0  0  0  0
   60.4328   -5.5653  -17.2289 N   0  0  0  0  0  0  0  0  0  0  0  0
   60.5919   -6.0307  -15.8416 C   0  0  0  0  0  0  0  0  0  0  0  0
   65.2332  -10.2809  -14.2746 O   0  0  0  0  0  0  0  0  0  0  0  0
   64.4526   -9.1873  -14.6865 C   0  0  0  0  0  0  0  0  0  0  0  0
   64.0656   -9.0446  -16.0028 C   0  0  0  0  0  0  0  0  0  0  0  0
   63.2993   -7.9631  -16.3856 C   0  0  0  0  0  0  0  0  0  0  0  0
   62.8919   -6.9955  -15.4968 C   0  0  0  0  0  0  0  0  0  0  0  0
   63.2694   -7.1280  -14.1948 C   0  0  0  0  0  0  0  0  0  0  0  0
   64.0451   -8.2182  -13.7940 C   0  0  0  0  0  0  0  0  0  0  0  0
   66.2621  -10.2119  -14.2926 H   0  0  0  0  0  0  0  0  0  0  0  0
   60.4189   -4.1292  -17.3037 C   0  0  0  0  0  0  0  0  0  0  0  0
   59.0214   -3.6528  -17.4156 C   0  0  0  0  0  0  0  0  0  0  0  0
   57.9787   -4.5385  -17.5272 C   0  0  0  0  0  0  0  0  0  0  0  0
   56.6704   -4.1232  -17.6352 C   0  0  0  0  0  0  0  0  0  0  0  0
   56.3810   -2.7785  -17.6329 C   0  0  0  0  0  0  0  0  0  0  0  0
   57.4229   -1.8666  -17.5209 C   0  0  0  0  0  0  0  0  0  0  0  0
   57.3791   -0.5315  -17.4968 N   0  0  0  0  0  0  0  0  0  0  0  0
   58.6478   -0.0771  -17.3741 C   0  0  0  0  0  0  0  0  0  0  0  0
   59.5131   -1.1736  -17.3198 C   0  0  0  0  0  0  0  0  0  0  0  0
   58.7191   -2.2942  -17.4141 C   0  0  0  0  0  0  0  0  0  0  0  0
   56.5550    0.1098  -17.5569 H   0  0  0  0  0  0  0  0  0  0  0  0
  5  6  1  0  0  0
  6  7  2  0  0  0
  7  8  1  0  0  0
  8  9  2  0  0  0
  9 10  1  0  0  0
 10 11  2  0  0  0
  9  1  1  0  0  0
  1  2  1  0  0  0
  2  3  1  0  0  0
  3 13  1  0  0  0
 13 14  1  0  0  0
 14 15  2  0  0  0
 15 16  1  0  0  0
 16 17  2  0  0  0
 17 18  1  0  0  0
 18 19  1  0  0  0
 19 20  1  0  0  0
 20 21  2  0  0  0
 21 22  1  0  0  0
  3  4  1  0  0  0
 11  6  1  0  0  0
  4  1  1  0  0  0
 22 14  1  0  0  0
 22 18  2  0  0  0
  5 12  1  0  0  0
 19 23  1  0  0  0
M  END
> <minimizedAffinity>
3.99969

> <CNNscore>
0.6204138398

> <CNNaffinity>
3.7416453362

> <CNN_VS>
2.3213684559

> <CNNaffinity_variance>
0.1429417878

$$$$
[H]Oc1c([H])c([H])c(C2([H])C([H])([H])N(C([H])([H])c3c([H])c([H])c([H])c4c3c([H])c([H])n4[H])C2([H])[H])c([H])c1[H]


 23 26  0  0  0  0  0  0  0  0999 V2000
   52.3546   -3.8968   -8.1125 C   0  0  0  0  0  0  0  0  0  0  0  0
   53.0898   -2.6314   -8.4375 C   0  0  0  0  0  0  0  0  0  0  0  0
   54.3280   -3.3904   -8.4382 N   0  0  0  0  0  0  0  0  0  0  0  0
   53.6612   -4.3375   -7.5300 C   0  0  0  0  0  0  0  0  0  0  0  0
   48.2888   -3.1186   -4.1997 O   0  0  0  0  0  0  0  0  0  0  0  0
   49.2861   -3.2959   -5.1738 C   0  0  0  0  0  0  0  0  0  0  0  0
   50.1657   -4.3564   -5.1072 C   0  0  0  0  0  0  0  0  0  0  0  0
   51.1374   -4.5115   -6.0742 C   0  0  0  0  0  0  0  0  0  0  0  0
   51.2759   -3.6385   -7.1281 C   0  0  0  0  0  0  0  0  0  0  0  0
   50.4119   -2.5881   -7.2022 C   0  0  0  0  0  0  0  0  0  0  0  0
   49.4235   -2.4196   -6.2297 C   0  0  0  0  0  0  0  0  0  0  0  0
   48.4882   -2.5564   -3.3583 H   0  0  0  0  0  0  0  0  0  0  0  0
   54.5444   -3.9703   -9.7363 C   0  0  0  0  0  0  0  0  0  0  0  0
   55.9650   -4.3657   -9.8712 C   0  0  0  0  0  0  0  0  0  0  0  0
   56.6541   -4.9014   -8.8119 C   0  0  0  0  0  0  0  0  0  0  0  0
   57.9757   -5.2752   -8.9087 C   0  0  0  0  0  0  0  0  0  0  0  0
   58.6431   -5.1131  -10.1003 C   0  0  0  0  0  0  0  0  0  0  0  0
   57.9627   -4.5724  -11.1840 C   0  0  0  0  0  0  0  0  0  0  0  0
   58.4025   -4.3267  -12.4214 N   0  0  0  0  0  0  0  0  0  0  0  0
   57.3775   -3.7966  -13.1282 C   0  0  0  0  0  0  0  0  0  0  0  0
   56.2574   -3.7101  -12.2966 C   0  0  0  0  0  0  0  0  0  0  0  0
   56.6485   -4.2053  -11.0731 C   0  0  0  0  0  0  0  0  0  0  0  0
   59.3486   -4.4879  -12.8371 H   0  0  0  0  0  0  0  0  0  0  0  0
  5  6  1  0  0  0
  6  7  2  0  0  0
  7  8  1  0  0  0
  8  9  2  0  0  0
  9 10  1  0  0  0
 10 11  2  0  0  0
  9  1  1  0  0  0
  1  2  1  0  0  0
  2  3  1  0  0  0
  3 13  1  0  0  0
 13 14  1  0  0  0
 14 15  2  0  0  0
 15 16  1  0  0  0
 16 17  2  0  0  0
 17 18  1  0  0  0
 18 19  1  0  0  0
 19 20  1  0  0  0
 20 21  2  0  0  0
 21 22  1  0  0  0
  3  4  1  0  0  0
 11  6  1  0  0  0
  4  1  1  0  0  0
 22 14  1  0  0  0
 22 18  2  0  0  0
  5 12  1  0  0  0
 19 23  1  0  0  0
M  END
> <minimizedAffinity>
-10.07815

> <CNNscore>
0.6143284440

> <CNNaffinity>
5.9090037346

> <CNN_VS>
3.6300690174

> <CNNaffinity_variance>
0.0570361428

$$$$
[H]Oc1c([H])c([H])c(C2([H])C([H])([H])N(C([H])([H])c3c([H])c([H])c([H])c4c3c([H])c([H])n4[H])C2([H])[H])c([H])c1[H]


 23 26  0  0  0  0  0  0  0  0999 V2000
   62.2894   -8.7920   -6.7267 C   0  0  0  0  0  0  0  0  0  0  0  0
   62.8936   -9.8995   -7.5366 C   0  0  0  0  0  0  0  0  0  0  0  0
   62.5497   -9.1622   -8.7396 N   0  0  0  0  0  0  0  0  0  0  0  0
   61.4764   -8.5296   -7.9559 C   0  0  0  0  0  0  0  0  0  0  0  0
   59.3201  -10.6432   -2.2319 O   0  0  0  0  0  0  0  0  0  0  0  0
   60.0575  -10.2035   -3.3445 C   0  0  0  0  0  0  0  0  0  0  0  0
   60.1238   -8.8649   -3.6707 C   0  0  0  0  0  0  0  0  0  0  0  0
   60.8537   -8.4550   -4.7674 C   0  0  0  0  0  0  0  0  0  0  0  0
   61.5357   -9.3378   -5.5720 C   0  0  0  0  0  0  0  0  0  0  0  0
   61.4761  -10.6618   -5.2577 C   0  0  0  0  0  0  0  0  0  0  0  0
   60.7408  -11.0901   -4.1501 C   0  0  0  0  0  0  0  0  0  0  0  0
   58.3257  -10.8935   -2.3426 H   0  0  0  0  0  0  0  0  0  0  0  0
   63.5944   -8.2250   -9.0533 C   0  0  0  0  0  0  0  0  0  0  0  0
   63.5106   -7.8507  -10.4835 C   0  0  0  0  0  0  0  0  0  0  0  0
   62.8896   -6.6913  -10.8763 C   0  0  0  0  0  0  0  0  0  0  0  0
   62.7951   -6.3203  -12.1988 C   0  0  0  0  0  0  0  0  0  0  0  0
   63.3359   -7.1275  -13.1723 C   0  0  0  0  0  0  0  0  0  0  0  0
   63.9684   -8.3052  -12.7945 C   0  0  0  0  0  0  0  0  0  0  0  0
   64.5577   -9.2307  -13.5569 N   0  0  0  0  0  0  0  0  0  0  0  0
   65.0338  -10.1990  -12.7402 C   0  0  0  0  0  0  0  0  0  0  0  0
   64.7278   -9.8609  -11.4188 C   0  0  0  0  0  0  0  0  0  0  0  0
   64.0549   -8.6613  -11.4754 C   0  0  0  0  0  0  0  0  0  0  0  0
   64.6685   -9.2666  -14.5963 H   0  0  0  0  0  0  0  0  0  0  0  0
  5  6  1  0  0  0
  6  7  2  0  0  0
  7  8  1  0  0  0
  8  9  2  0  0  0
  9 10  1  0  0  0
 10 11  2  0  0  0
  9  1  1  0  0  0
  1  2  1  0  0  0
  2  3  1  0  0  0
  3 13  1  0  0  0
 13 14  1  0  0  0
 14 15  2  0  0  0
 15 16  1  0  0  0
 16 17  2  0  0  0
 17 18  1  0  0  0
 18 19  1  0  0  0
 19 20  1  0  0  0
 20 21  2  0  0  0
 21 22  1  0  0  0
  3  4  1  0  0  0
 11  6  1  0  0  0
  4  1  1  0  0  0
 22 14  1  0  0  0
 22 18  2  0  0  0
  5 12  1  0  0  0
 19 23  1  0  0  0
M  END
> <minimizedAffinity>
-2.69680

> <CNNscore>
0.5329219103

> <CNNaffinity>
3.9358420372

> <CNN_VS>
2.0974965096

> <CNNaffinity_variance>
0.0220800973

$$$$
[H]Oc1c([H])c([H])c(C2([H])C([H])([H])N(C([H])([H])c3c([H])c([H])c([H])c4c3c([H])c([H])n4[H])C2([H])[H])c([H])c1[H]


 23 26  0  0  0  0  0  0  0  0999 V2000
   52.1389   -3.8264   -8.2533 C   0  0  0  0  0  0  0  0  0  0  0  0
   52.9018   -2.5763   -8.5739 C   0  0  0  0  0  0  0  0  0  0  0  0
   54.1094   -3.3775   -8.6682 N   0  0  0  0  0  0  0  0  0  0  0  0
   53.4575   -4.3333   -7.7583 C   0  0  0  0  0  0  0  0  0  0  0  0
   48.3220   -3.0471   -4.0975 O   0  0  0  0  0  0  0  0  0  0  0  0
   49.2577   -3.2244   -5.1309 C   0  0  0  0  0  0  0  0  0  0  0  0
   50.1181   -4.3026   -5.1350 C   0  0  0  0  0  0  0  0  0  0  0  0
   51.0291   -4.4573   -6.1595 C   0  0  0  0  0  0  0  0  0  0  0  0
   51.1242   -3.5668   -7.2035 C   0  0  0  0  0  0  0  0  0  0  0  0
   50.2787   -2.4988   -7.2079 C   0  0  0  0  0  0  0  0  0  0  0  0
   49.3516   -2.3305   -6.1769 C   0  0  0  0  0  0  0  0  0  0  0  0
   48.5809   -2.5053   -3.2590 H   0  0  0  0  0  0  0  0  0  0  0  0
   54.2352   -3.9168   -9.9954 C   0  0  0  0  0  0  0  0  0  0  0  0
   55.6574   -4.2212  -10.2733 C   0  0  0  0  0  0  0  0  0  0  0  0
   56.1959   -4.0111  -11.5182 C   0  0  0  0  0  0  0  0  0  0  0  0
   57.5139   -4.2877  -11.8048 C   0  0  0  0  0  0  0  0  0  0  0  0
   58.3326   -4.7923  -10.8215 C   0  0  0  0  0  0  0  0  0  0  0  0
   57.8058   -5.0120   -9.5550 C   0  0  0  0  0  0  0  0  0  0  0  0
   58.4059   -5.4889   -8.4607 N   0  0  0  0  0  0  0  0  0  0  0  0
   57.4884   -5.5241   -7.4667 C   0  0  0  0  0  0  0  0  0  0  0  0
   56.2709   -5.0502   -7.9637 C   0  0  0  0  0  0  0  0  0  0  0  0
   56.4933   -4.7322   -9.2846 C   0  0  0  0  0  0  0  0  0  0  0  0
   59.3959   -5.7976   -8.3239 H   0  0  0  0  0  0  0  0  0  0  0  0
  5  6  1  0  0  0
  6  7  2  0  0  0
  7  8  1  0  0  0
  8  9  2  0  0  0
  9 10  1  0  0  0
 10 11  2  0  0  0
  9  1  1  0  0  0
  1  2  1  0  0  0
  2  3  1  0  0  0
  3 13  1  0  0  0
 13 14  1  0  0  0
 14 15  2  0  0  0
 15 16  1  0  0  0
 16 17  2  0  0  0
 17 18  1  0  0  0
 18 19  1  0  0  0
 19 20  1  0  0  0
 20 21  2  0  0  0
 21 22  1  0  0  0
  3  4  1  0  0  0
 11  6  1  0  0  0
  4  1  1  0  0  0
 22 14  1  0  0  0
 22 18  2  0  0  0
  5 12  1  0  0  0
 19 23  1  0  0  0
M  END
> <minimizedAffinity>
-9.96568

> <CNNscore>
0.5265163183

> <CNNaffinity>
6.0863013268

> <CNN_VS>
3.2045369148

> <CNNaffinity_variance>
0.0313874744

$$$$
[H]Oc1c([H])c([H])c(C2([H])C([H])([H])N(C([H])([H])c3c([H])c([H])c([H])c4c3c([H])c([H])n4[H])C2([H])[H])c([H])c1[H]


 23 26  0  0  0  0  0  0  0  0999 V2000
   55.6112   -4.5459   -9.3670 C   0  0  0  0  0  0  0  0  0  0  0  0
   55.3867   -3.2539   -8.6404 C   0  0  0  0  0  0  0  0  0  0  0  0
   53.9902   -3.6217   -8.4866 N   0  0  0  0  0  0  0  0  0  0  0  0
   54.1529   -4.4515   -9.6914 C   0  0  0  0  0  0  0  0  0  0  0  0
   58.9411   -3.6906  -13.9086 O   0  0  0  0  0  0  0  0  0  0  0  0
   58.1337   -3.9085  -12.7793 C   0  0  0  0  0  0  0  0  0  0  0  0
   56.7952   -3.5752  -12.7861 C   0  0  0  0  0  0  0  0  0  0  0  0
   56.0207   -3.7978  -11.6662 C   0  0  0  0  0  0  0  0  0  0  0  0
   56.5304   -4.3496  -10.5140 C   0  0  0  0  0  0  0  0  0  0  0  0
   57.8513   -4.6820  -10.4979 C   0  0  0  0  0  0  0  0  0  0  0  0
   58.6465   -4.4620  -11.6249 C   0  0  0  0  0  0  0  0  0  0  0  0
   59.4376   -2.7933  -14.0182 H   0  0  0  0  0  0  0  0  0  0  0  0
   53.8252   -4.4308   -7.3091 C   0  0  0  0  0  0  0  0  0  0  0  0
   52.3999   -4.8039   -7.1607 C   0  0  0  0  0  0  0  0  0  0  0  0
   52.0299   -6.1041   -6.9227 C   0  0  0  0  0  0  0  0  0  0  0  0
   50.7126   -6.4792   -6.7831 C   0  0  0  0  0  0  0  0  0  0  0  0
   49.7210   -5.5312   -6.8827 C   0  0  0  0  0  0  0  0  0  0  0  0
   50.0756   -4.2098   -7.1234 C   0  0  0  0  0  0  0  0  0  0  0  0
   49.2931   -3.1351   -7.2564 N   0  0  0  0  0  0  0  0  0  0  0  0
   50.0916   -2.0660   -7.4811 C   0  0  0  0  0  0  0  0  0  0  0  0
   51.4222   -2.4942   -7.4878 C   0  0  0  0  0  0  0  0  0  0  0  0
   51.3898   -3.8515   -7.2600 C   0  0  0  0  0  0  0  0  0  0  0  0
   48.2511   -3.0589   -7.2080 H   0  0  0  0  0  0  0  0  0  0  0  0
  5  6  1  0  0  0
  6  7  2  0  0  0
  7  8  1  0  0  0
  8  9  2  0  0  0
  9 10  1  0  0  0
 10 11  2  0  0  0
  9  1  1  0  0  0
  1  2  1  0  0  0
  2  3  1  0  0  0
  3 13  1  0  0  0
 13 14  1  0  0  0
 14 15  2  0  0  0
 15 16  1  0  0  0
 16 17  2  0  0  0
 17 18  1  0  0  0
 18 19  1  0  0  0
 19 20  1  0  0  0
 20 21  2  0  0  0
 21 22  1  0  0  0
  3  4  1  0  0  0
 11  6  1  0  0  0
  4  1  1  0  0  0
 22 14  1  0  0  0
 22 18  2  0  0  0
  5 12  1  0  0  0
 19 23  1  0  0  0
M  END
> <minimizedAffinity>
-8.37468

> <CNNscore>
0.5113612413

> <CNNaffinity>
5.8101325035

> <CNN_VS>
2.9710764885

> <CNNaffinity_variance>
0.0345321335

$$$$
[H]Oc1c([H])c([H])c(C2([H])C([H])([H])N(C([H])([H])c3c([H])c([H])c([H])c4c3c([H])c([H])n4[H])C2([H])[H])c([H])c1[H]


 23 26  0  0  0  0  0  0  0  0999 V2000
   54.6918   -6.9260   -4.7951 C   0  0  0  0  0  0  0  0  0  0  0  0
   53.5511   -6.6474   -3.8631 C   0  0  0  0  0  0  0  0  0  0  0  0
   53.2233   -5.4826   -4.6661 N   0  0  0  0  0  0  0  0  0  0  0  0
   54.6381   -5.4558   -5.0711 C   0  0  0  0  0  0  0  0  0  0  0  0
   59.4198   -8.5658   -2.0741 O   0  0  0  0  0  0  0  0  0  0  0  0
   58.2434   -8.1706   -2.7335 C   0  0  0  0  0  0  0  0  0  0  0  0
   58.2912   -7.3710   -3.8565 C   0  0  0  0  0  0  0  0  0  0  0  0
   57.1239   -6.9946   -4.4884 C   0  0  0  0  0  0  0  0  0  0  0  0
   55.8834   -7.3873   -4.0424 C   0  0  0  0  0  0  0  0  0  0  0  0
   55.8263   -8.1770   -2.9340 C   0  0  0  0  0  0  0  0  0  0  0  0
   57.0005   -8.5652   -2.2849 C   0  0  0  0  0  0  0  0  0  0  0  0
   59.8039   -7.9809   -1.3165 H   0  0  0  0  0  0  0  0  0  0  0  0
   52.3706   -5.8670   -5.7586 C   0  0  0  0  0  0  0  0  0  0  0  0
   51.5385   -4.7122   -6.1670 C   0  0  0  0  0  0  0  0  0  0  0  0
   50.3786   -4.4050   -5.5005 C   0  0  0  0  0  0  0  0  0  0  0  0
   49.5848   -3.3391   -5.8603 C   0  0  0  0  0  0  0  0  0  0  0  0
   49.9520   -2.5450   -6.9217 C   0  0  0  0  0  0  0  0  0  0  0  0
   51.1227   -2.8401   -7.6089 C   0  0  0  0  0  0  0  0  0  0  0  0
   51.6686   -2.2156   -8.6563 N   0  0  0  0  0  0  0  0  0  0  0  0
   52.8098   -2.8673   -8.9790 C   0  0  0  0  0  0  0  0  0  0  0  0
   52.9787   -3.9385   -8.0969 C   0  0  0  0  0  0  0  0  0  0  0  0
   51.9022   -3.9033   -7.2396 C   0  0  0  0  0  0  0  0  0  0  0  0
   51.3331   -1.3751   -9.1806 H   0  0  0  0  0  0  0  0  0  0  0  0
  5  6  1  0  0  0
  6  7  2  0  0  0
  7  8  1  0  0  0
  8  9  2  0  0  0
  9 10  1  0  0  0
 10 11  2  0  0  0
  9  1  1  0  0  0
  1  2  1  0  0  0
  2  3  1  0  0  0
  3 13  1  0  0  0
 13 14  1  0  0  0
 14 15  2  0  0  0
 15 16  1  0  0  0
 16 17  2  0  0  0
 17 18  1  0  0  0
 18 19  1  0  0  0
 19 20  1  0  0  0
 20 21  2  0  0  0
 21 22  1  0  0  0
  3  4  1  0  0  0
 11  6  1  0  0  0
  4  1  1  0  0  0
 22 14  1  0  0  0
 22 18  2  0  0  0
  5 12  1  0  0  0
 19 23  1  0  0  0
M  END
> <minimizedAffinity>
-8.64328

> <CNNscore>
0.4659835100

> <CNNaffinity>
5.8006186485

> <CNN_VS>
2.7029926777

> <CNNaffinity_variance>
0.1610984355

$$$$
[H]Oc1c([H])c([H])c(C2([H])C([H])([H])N(C([H])([H])c3c([H])c([H])c([H])c4c3c([H])c([H])n4[H])C2([H])[H])c([H])c1[H]


 23 26  0  0  0  0  0  0  0  0999 V2000
   51.7694   -4.6014   -6.6359 C   0  0  0  0  0  0  0  0  0  0  0  0
   51.1095   -5.3327   -5.5059 C   0  0  0  0  0  0  0  0  0  0  0  0
   52.0038   -4.6512   -4.5867 N   0  0  0  0  0  0  0  0  0  0  0  0
   52.9446   -4.5260   -5.7117 C   0  0  0  0  0  0  0  0  0  0  0  0
   52.3023   -8.2152  -11.0066 O   0  0  0  0  0  0  0  0  0  0  0  0
   52.1795   -7.3110   -9.9379 C   0  0  0  0  0  0  0  0  0  0  0  0
   51.5595   -7.6788   -8.7619 C   0  0  0  0  0  0  0  0  0  0  0  0
   51.4498   -6.7752   -7.7251 C   0  0  0  0  0  0  0  0  0  0  0  0
   51.9406   -5.4929   -7.8086 C   0  0  0  0  0  0  0  0  0  0  0  0
   52.5544   -5.1206   -8.9661 C   0  0  0  0  0  0  0  0  0  0  0  0
   52.6722   -6.0258  -10.0233 C   0  0  0  0  0  0  0  0  0  0  0  0
   51.5620   -8.2656  -11.7229 H   0  0  0  0  0  0  0  0  0  0  0  0
   51.4488   -3.3760   -4.2207 C   0  0  0  0  0  0  0  0  0  0  0  0
   50.0738   -3.2619   -4.7582 C   0  0  0  0  0  0  0  0  0  0  0  0
   48.9929   -3.7026   -4.0361 C   0  0  0  0  0  0  0  0  0  0  0  0
   47.7044   -3.6111   -4.5125 C   0  0  0  0  0  0  0  0  0  0  0  0
   47.4748   -3.0622   -5.7526 C   0  0  0  0  0  0  0  0  0  0  0  0
   48.5561   -2.6106   -6.4987 C   0  0  0  0  0  0  0  0  0  0  0  0
   48.5715   -2.0499   -7.7113 N   0  0  0  0  0  0  0  0  0  0  0  0
   49.8591   -1.7769   -8.0256 C   0  0  0  0  0  0  0  0  0  0  0  0
   50.6749   -2.1841   -6.9661 C   0  0  0  0  0  0  0  0  0  0  0  0
   49.8320   -2.7079   -6.0120 C   0  0  0  0  0  0  0  0  0  0  0  0
   47.7767   -1.8321   -8.3554 H   0  0  0  0  0  0  0  0  0  0  0  0
  5  6  1  0  0  0
  6  7  2  0  0  0
  7  8  1  0  0  0
  8  9  2  0  0  0
  9 10  1  0  0  0
 10 11  2  0  0  0
  9  1  1  0  0  0
  1  2  1  0  0  0
  2  3  1  0  0  0
  3 13  1  0  0  0
 13 14  1  0  0  0
 14 15  2  0  0  0
 15 16  1  0  0  0
 16 17  2  0  0  0
 17 18  1  0  0  0
 18 19  1  0  0  0
 19 20  1  0  0  0
 20 21  2  0  0  0
 21 22  1  0  0  0
  3  4  1  0  0  0
 11  6  1  0  0  0
  4  1  1  0  0  0
 22 14  1  0  0  0
 22 18  2  0  0  0
  5 12  1  0  0  0
 19 23  1  0  0  0
M  END
> <minimizedAffinity>
19.62813

> <CNNscore>
0.3184056878

> <CNNaffinity>
5.5865654945

> <CNN_VS>
1.7787941694

> <CNNaffinity_variance>
0.9226415753

$$$$
[H]Oc1c([H])c([H])c(C2([H])C([H])([H])N(C([H])([H])c3c([H])c([H])c([H])c4c3c([H])c([H])n4[H])C2([H])[H])c([H])c1[H]


 23 26  0  0  0  0  0  0  0  0999 V2000
   54.9100   -4.6843   -9.2044 C   0  0  0  0  0  0  0  0  0  0  0  0
   54.9852   -3.6691   -8.1039 C   0  0  0  0  0  0  0  0  0  0  0  0
   53.5490   -3.4866   -8.2195 N   0  0  0  0  0  0  0  0  0  0  0  0
   53.6787   -3.9382   -9.6144 C   0  0  0  0  0  0  0  0  0  0  0  0
   59.5059   -4.2915  -12.5464 O   0  0  0  0  0  0  0  0  0  0  0  0
   58.3623   -4.3800  -11.7345 C   0  0  0  0  0  0  0  0  0  0  0  0
   58.4181   -4.9675  -10.4878 C   0  0  0  0  0  0  0  0  0  0  0  0
   57.2831   -5.0438   -9.7071 C   0  0  0  0  0  0  0  0  0  0  0  0
   56.0678   -4.5505  -10.1213 C   0  0  0  0  0  0  0  0  0  0  0  0
   56.0030   -3.9685  -11.3511 C   0  0  0  0  0  0  0  0  0  0  0  0
   57.1446   -3.8848  -12.1515 C   0  0  0  0  0  0  0  0  0  0  0  0
   59.7254   -5.0522  -13.2073 H   0  0  0  0  0  0  0  0  0  0  0  0
   52.8664   -4.4616   -7.4122 C   0  0  0  0  0  0  0  0  0  0  0  0
   51.6108   -3.8779   -6.8873 C   0  0  0  0  0  0  0  0  0  0  0  0
   51.0009   -2.8244   -7.5213 C   0  0  0  0  0  0  0  0  0  0  0  0
   49.8348   -2.2610   -7.0539 C   0  0  0  0  0  0  0  0  0  0  0  0
   49.2480   -2.7588   -5.9138 C   0  0  0  0  0  0  0  0  0  0  0  0
   49.8505   -3.8248   -5.2578 C   0  0  0  0  0  0  0  0  0  0  0  0
   49.4646   -4.4623   -4.1488 N   0  0  0  0  0  0  0  0  0  0  0  0
   50.3705   -5.4345   -3.8929 C   0  0  0  0  0  0  0  0  0  0  0  0
   51.3574   -5.3989   -4.8822 C   0  0  0  0  0  0  0  0  0  0  0  0
   51.0100   -4.3750   -5.7343 C   0  0  0  0  0  0  0  0  0  0  0  0
   48.6305   -4.2960   -3.5401 H   0  0  0  0  0  0  0  0  0  0  0  0
  5  6  1  0  0  0
  6  7  2  0  0  0
  7  8  1  0  0  0
  8  9  2  0  0  0
  9 10  1  0  0  0
 10 11  2  0  0  0
  9  1  1  0  0  0
  1  2  1  0  0  0
  2  3  1  0  0  0
  3 13  1  0  0  0
 13 14  1  0  0  0
 14 15  2  0  0  0
 15 16  1  0  0  0
 16 17  2  0  0  0
 17 18  1  0  0  0
 18 19  1  0  0  0
 19 20  1  0  0  0
 20 21  2  0  0  0
 21 22  1  0  0  0
  3  4  1  0  0  0
 11  6  1  0  0  0
  4  1  1  0  0  0
 22 14  1  0  0  0
 22 18  2  0  0  0
  5 12  1  0  0  0
 19 23  1  0  0  0
M  END
> <minimizedAffinity>
-10.24267

> <CNNscore>
0.3175385892

> <CNNaffinity>
5.7431497574

> <CNN_VS>
1.8236716986

> <CNNaffinity_variance>
0.1190093383

$$$$
