[H]c1c([H])c(-n2c([H])nc3c([H])c(OC([H])([H])[H])c(OC([H])([H])[H])c([H])c32)c([H])c(C([H])([H])N([H])C(=O)C2([H])C([H])([H])C2([H])[H])c1[H]


 27 30  0  0  0  0  0  0  0  0999 V2000
   55.5543   -4.1348   -9.0413 C   0  0  0  0  0  0  0  0  0  0  0  0
   56.3046   -4.9268   -8.1946 C   0  0  0  0  0  0  0  0  0  0  0  0
   57.5196   -5.4355   -8.5018 C   0  0  0  0  0  0  0  0  0  0  0  0
   58.0805   -5.1592   -9.7520 C   0  0  0  0  0  0  0  0  0  0  0  0
   57.3700   -4.3756  -10.6355 C   0  0  0  0  0  0  0  0  0  0  0  0
   56.1295   -3.8662  -10.2979 C   0  0  0  0  0  0  0  0  0  0  0  0
   51.2306   -4.6849   -6.1257 C   0  0  0  0  0  0  0  0  0  0  0  0
   51.1341   -3.7962   -7.1555 C   0  0  0  0  0  0  0  0  0  0  0  0
   52.2231   -3.5297   -7.9777 C   0  0  0  0  0  0  0  0  0  0  0  0
   52.2847   -2.6883   -9.0489 N   0  0  0  0  0  0  0  0  0  0  0  0
   53.5531   -2.8011   -9.5139 C   0  0  0  0  0  0  0  0  0  0  0  0
   54.2209   -3.6885   -8.7351 N   0  0  0  0  0  0  0  0  0  0  0  0
   53.4223   -4.1615   -7.7665 C   0  0  0  0  0  0  0  0  0  0  0  0
   53.5446   -5.0506   -6.7341 C   0  0  0  0  0  0  0  0  0  0  0  0
   52.4830   -5.3357   -5.9078 C   0  0  0  0  0  0  0  0  0  0  0  0
   49.5708   -4.1320   -4.3603 C   0  0  0  0  0  0  0  0  0  0  0  0
   50.1861   -4.9963   -5.2733 O   0  0  0  0  0  0  0  0  0  0  0  0
   52.5342   -6.2004   -4.8782 O   0  0  0  0  0  0  0  0  0  0  0  0
   53.4497   -6.3673   -3.8639 C   0  0  0  0  0  0  0  0  0  0  0  0
   58.0017   -4.2518  -12.0034 C   0  0  0  0  0  0  0  0  0  0  0  0
   57.1303   -4.4585  -13.0759 N   0  0  0  0  0  0  0  0  0  0  0  0
   56.3009   -4.6587  -14.0935 C   0  0  0  0  0  0  0  0  0  0  0  0
   55.4936   -5.6458  -14.2137 O   0  0  0  0  0  0  0  0  0  0  0  0
   56.8470   -5.6901  -12.5913 H   0  0  0  0  0  0  0  0  0  0  0  0
   56.1586   -3.7411  -15.3233 C   0  0  0  0  0  0  0  0  0  0  0  0
   56.8051   -4.2335  -16.6394 C   0  0  0  0  0  0  0  0  0  0  0  0
   57.3838   -3.1550  -15.8403 C   0  0  0  0  0  0  0  0  0  0  0  0
 16 17  1  0  0  0
 17  7  1  0  0  0
  7  8  2  0  0  0
  8  9  1  0  0  0
  9 10  1  0  0  0
 10 11  2  0  0  0
 11 12  1  0  0  0
 12  1  1  0  0  0
  1  2  2  0  0  0
  2  3  1  0  0  0
  3  4  2  0  0  0
  4  5  1  0  0  0
  5 20  1  0  0  0
 20 21  1  0  0  0
 21 22  1  0  0  0
 22 23  2  0  0  0
 22 25  1  0  0  0
 25 26  1  0  0  0
 26 27  1  0  0  0
  5  6  2  0  0  0
 12 13  1  0  0  0
 13 14  1  0  0  0
 14 15  2  0  0  0
 15 18  1  0  0  0
 18 19  1  0  0  0
 15  7  1  0  0  0
 13  9  2  0  0  0
  6  1  1  0  0  0
 27 25  1  0  0  0
 21 24  1  0  0  0
M  END
> <minimizedAffinity>
-8.81583

> <CNNscore>
0.8405286074

> <CNNaffinity>
6.7633361816

> <CNN_VS>
5.6847777367

> <CNNaffinity_variance>
0.0049298331

$$$$
[H]c1c([H])c(-n2c([H])nc3c([H])c(OC([H])([H])[H])c(OC([H])([H])[H])c([H])c32)c([H])c(C([H])([H])N([H])C(=O)C2([H])C([H])([H])C2([H])[H])c1[H]


 27 30  0  0  0  0  0  0  0  0999 V2000
   54.9319   -5.0121   -6.8741 C   0  0  0  0  0  0  0  0  0  0  0  0
   55.9696   -4.8970   -5.9701 C   0  0  0  0  0  0  0  0  0  0  0  0
   55.8629   -5.1603   -4.6478 C   0  0  0  0  0  0  0  0  0  0  0  0
   54.6335   -5.5789   -4.1308 C   0  0  0  0  0  0  0  0  0  0  0  0
   53.5646   -5.7065   -4.9914 C   0  0  0  0  0  0  0  0  0  0  0  0
   53.6988   -5.4320   -6.3401 C   0  0  0  0  0  0  0  0  0  0  0  0
   57.8834   -4.7119  -11.1981 C   0  0  0  0  0  0  0  0  0  0  0  0
   56.6654   -4.1036  -11.2762 C   0  0  0  0  0  0  0  0  0  0  0  0
   55.7723   -4.1465  -10.2116 C   0  0  0  0  0  0  0  0  0  0  0  0
   54.5345   -3.5810  -10.1263 N   0  0  0  0  0  0  0  0  0  0  0  0
   54.0868   -3.8967   -8.8862 C   0  0  0  0  0  0  0  0  0  0  0  0
   55.0394   -4.6294   -8.2572 N   0  0  0  0  0  0  0  0  0  0  0  0
   56.1035   -4.8055   -9.0549 C   0  0  0  0  0  0  0  0  0  0  0  0
   57.3166   -5.4302   -8.9573 C   0  0  0  0  0  0  0  0  0  0  0  0
   58.2204   -5.4007   -9.9932 C   0  0  0  0  0  0  0  0  0  0  0  0
   59.3129   -3.5787  -12.8862 C   0  0  0  0  0  0  0  0  0  0  0  0
   58.8176   -4.7050  -12.2187 O   0  0  0  0  0  0  0  0  0  0  0  0
   59.4294   -5.9904   -9.9619 O   0  0  0  0  0  0  0  0  0  0  0  0
   60.3635   -6.1172   -8.9588 C   0  0  0  0  0  0  0  0  0  0  0  0
   52.2540   -6.0307   -4.3111 C   0  0  0  0  0  0  0  0  0  0  0  0
   51.1807   -5.2162   -4.6808 N   0  0  0  0  0  0  0  0  0  0  0  0
   50.1591   -4.4422   -5.0283 C   0  0  0  0  0  0  0  0  0  0  0  0
   49.2554   -4.0005   -4.2353 O   0  0  0  0  0  0  0  0  0  0  0  0
   50.6460   -5.3839   -3.4488 H   0  0  0  0  0  0  0  0  0  0  0  0
   49.8679   -3.9342   -6.4537 C   0  0  0  0  0  0  0  0  0  0  0  0
   50.9057   -2.9710   -7.0764 C   0  0  0  0  0  0  0  0  0  0  0  0
   49.6044   -2.5119   -6.5941 C   0  0  0  0  0  0  0  0  0  0  0  0
 16 17  1  0  0  0
 17  7  1  0  0  0
  7  8  2  0  0  0
  8  9  1  0  0  0
  9 10  1  0  0  0
 10 11  2  0  0  0
 11 12  1  0  0  0
 12  1  1  0  0  0
  1  2  2  0  0  0
  2  3  1  0  0  0
  3  4  2  0  0  0
  4  5  1  0  0  0
  5 20  1  0  0  0
 20 21  1  0  0  0
 21 22  1  0  0  0
 22 23  2  0  0  0
 22 25  1  0  0  0
 25 26  1  0  0  0
 26 27  1  0  0  0
  5  6  2  0  0  0
 12 13  1  0  0  0
 13 14  1  0  0  0
 14 15  2  0  0  0
 15 18  1  0  0  0
 18 19  1  0  0  0
 15  7  1  0  0  0
 13  9  2  0  0  0
  6  1  1  0  0  0
 27 25  1  0  0  0
 21 24  1  0  0  0
M  END
> <minimizedAffinity>
-9.39295

> <CNNscore>
0.7802023292

> <CNNaffinity>
6.9353914261

> <CNN_VS>
5.4110083580

> <CNNaffinity_variance>
0.0755676925

$$$$
[H]c1c([H])c(-n2c([H])nc3c([H])c(OC([H])([H])[H])c(OC([H])([H])[H])c([H])c32)c([H])c(C([H])([H])N([H])C(=O)C2([H])C([H])([H])C2([H])[H])c1[H]


 27 30  0  0  0  0  0  0  0  0999 V2000
   54.6937   -4.0230   -9.1192 C   0  0  0  0  0  0  0  0  0  0  0  0
   54.9832   -3.9184  -10.4655 C   0  0  0  0  0  0  0  0  0  0  0  0
   56.1789   -4.2293  -11.0157 C   0  0  0  0  0  0  0  0  0  0  0  0
   57.2112   -4.6900  -10.1934 C   0  0  0  0  0  0  0  0  0  0  0  0
   56.9743   -4.8092   -8.8410 C   0  0  0  0  0  0  0  0  0  0  0  0
   55.7426   -4.4858   -8.3019 C   0  0  0  0  0  0  0  0  0  0  0  0
   50.9232   -4.8111   -5.5611 C   0  0  0  0  0  0  0  0  0  0  0  0
   50.6804   -3.8167   -6.4622 C   0  0  0  0  0  0  0  0  0  0  0  0
   51.6192   -3.4817   -7.4314 C   0  0  0  0  0  0  0  0  0  0  0  0
   51.5232   -2.5326   -8.4057 N   0  0  0  0  0  0  0  0  0  0  0  0
   52.6875   -2.6154   -9.0951 C   0  0  0  0  0  0  0  0  0  0  0  0
   53.4493   -3.5908   -8.5400 N   0  0  0  0  0  0  0  0  0  0  0  0
   52.8147   -4.1512   -7.4994 C   0  0  0  0  0  0  0  0  0  0  0  0
   53.0833   -5.1466   -6.6002 C   0  0  0  0  0  0  0  0  0  0  0  0
   52.1716   -5.5010   -5.6337 C   0  0  0  0  0  0  0  0  0  0  0  0
   49.4229   -4.3581   -3.6320 C   0  0  0  0  0  0  0  0  0  0  0  0
   50.0319   -5.1946   -4.5747 O   0  0  0  0  0  0  0  0  0  0  0  0
   52.3706   -6.4706   -4.7224 O   0  0  0  0  0  0  0  0  0  0  0  0
   53.3351   -6.6371   -3.7545 C   0  0  0  0  0  0  0  0  0  0  0  0
   58.1922   -5.1829   -8.0270 C   0  0  0  0  0  0  0  0  0  0  0  0
   59.2797   -5.6461   -8.7721 N   0  0  0  0  0  0  0  0  0  0  0  0
   60.3115   -6.0847   -9.4838 C   0  0  0  0  0  0  0  0  0  0  0  0
   60.4887   -5.8900  -10.7373 O   0  0  0  0  0  0  0  0  0  0  0  0
   58.6520   -5.2561   -9.9061 H   0  0  0  0  0  0  0  0  0  0  0  0
   61.4874   -6.9149   -8.9336 C   0  0  0  0  0  0  0  0  0  0  0  0
   62.7061   -6.1278   -8.3972 C   0  0  0  0  0  0  0  0  0  0  0  0
   62.7361   -6.8402   -9.6733 C   0  0  0  0  0  0  0  0  0  0  0  0
 16 17  1  0  0  0
 17  7  1  0  0  0
  7  8  2  0  0  0
  8  9  1  0  0  0
  9 10  1  0  0  0
 10 11  2  0  0  0
 11 12  1  0  0  0
 12  1  1  0  0  0
  1  2  2  0  0  0
  2  3  1  0  0  0
  3  4  2  0  0  0
  4  5  1  0  0  0
  5 20  1  0  0  0
 20 21  1  0  0  0
 21 22  1  0  0  0
 22 23  2  0  0  0
 22 25  1  0  0  0
 25 26  1  0  0  0
 26 27  1  0  0  0
  5  6  2  0  0  0
 12 13  1  0  0  0
 13 14  1  0  0  0
 14 15  2  0  0  0
 15 18  1  0  0  0
 18 19  1  0  0  0
 15  7  1  0  0  0
 13  9  2  0  0  0
  6  1  1  0  0  0
 27 25  1  0  0  0
 21 24  1  0  0  0
M  END
> <minimizedAffinity>
-8.66886

> <CNNscore>
0.7337628007

> <CNNaffinity>
6.6795463562

> <CNN_VS>
4.9012026787

> <CNNaffinity_variance>
0.0429380611

$$$$
[H]c1c([H])c(-n2c([H])nc3c([H])c(OC([H])([H])[H])c(OC([H])([H])[H])c([H])c32)c([H])c(C([H])([H])N([H])C(=O)C2([H])C([H])([H])C2([H])[H])c1[H]


 27 30  0  0  0  0  0  0  0  0999 V2000
   54.6477   -4.2048   -8.1547 C   0  0  0  0  0  0  0  0  0  0  0  0
   55.5602   -4.2005   -9.1913 C   0  0  0  0  0  0  0  0  0  0  0  0
   56.7562   -4.8312   -9.1582 C   0  0  0  0  0  0  0  0  0  0  0  0
   57.1224   -5.5436   -8.0127 C   0  0  0  0  0  0  0  0  0  0  0  0
   56.2477   -5.5761   -6.9481 C   0  0  0  0  0  0  0  0  0  0  0  0
   55.0298   -4.9237   -7.0060 C   0  0  0  0  0  0  0  0  0  0  0  0
   49.7968   -3.5245   -6.2828 C   0  0  0  0  0  0  0  0  0  0  0  0
   50.1393   -2.7207   -7.3298 C   0  0  0  0  0  0  0  0  0  0  0  0
   51.4105   -2.7748   -7.8901 C   0  0  0  0  0  0  0  0  0  0  0  0
   51.9002   -2.0563   -8.9405 N   0  0  0  0  0  0  0  0  0  0  0  0
   53.1738   -2.4913   -9.1026 C   0  0  0  0  0  0  0  0  0  0  0  0
   53.4265   -3.4438   -8.1704 N   0  0  0  0  0  0  0  0  0  0  0  0
   52.3494   -3.6448   -7.3965 C   0  0  0  0  0  0  0  0  0  0  0  0
   52.0306   -4.4546   -6.3410 C   0  0  0  0  0  0  0  0  0  0  0  0
   50.7800   -4.4245   -5.7700 C   0  0  0  0  0  0  0  0  0  0  0  0
   48.0582   -2.5613   -4.7906 C   0  0  0  0  0  0  0  0  0  0  0  0
   48.5505   -3.5218   -5.6818 O   0  0  0  0  0  0  0  0  0  0  0  0
   50.4006   -5.1946   -4.7340 O   0  0  0  0  0  0  0  0  0  0  0  0
   50.4017   -4.9720   -3.3756 C   0  0  0  0  0  0  0  0  0  0  0  0
   56.7959   -6.2553   -5.7136 C   0  0  0  0  0  0  0  0  0  0  0  0
   56.2351   -5.8276   -4.5075 N   0  0  0  0  0  0  0  0  0  0  0  0
   55.7059   -5.4199   -3.3598 C   0  0  0  0  0  0  0  0  0  0  0  0
   56.3392   -4.8311   -2.4148 O   0  0  0  0  0  0  0  0  0  0  0  0
   57.4766   -5.5560   -4.0417 H   0  0  0  0  0  0  0  0  0  0  0  0
   54.2298   -5.5838   -2.9489 C   0  0  0  0  0  0  0  0  0  0  0  0
   53.8502   -6.8938   -2.2194 C   0  0  0  0  0  0  0  0  0  0  0  0
   53.4856   -6.6412   -3.6122 C   0  0  0  0  0  0  0  0  0  0  0  0
 16 17  1  0  0  0
 17  7  1  0  0  0
  7  8  2  0  0  0
  8  9  1  0  0  0
  9 10  1  0  0  0
 10 11  2  0  0  0
 11 12  1  0  0  0
 12  1  1  0  0  0
  1  2  2  0  0  0
  2  3  1  0  0  0
  3  4  2  0  0  0
  4  5  1  0  0  0
  5 20  1  0  0  0
 20 21  1  0  0  0
 21 22  1  0  0  0
 22 23  2  0  0  0
 22 25  1  0  0  0
 25 26  1  0  0  0
 26 27  1  0  0  0
  5  6  2  0  0  0
 12 13  1  0  0  0
 13 14  1  0  0  0
 14 15  2  0  0  0
 15 18  1  0  0  0
 18 19  1  0  0  0
 15  7  1  0  0  0
 13  9  2  0  0  0
  6  1  1  0  0  0
 27 25  1  0  0  0
 21 24  1  0  0  0
M  END
> <minimizedAffinity>
-8.01303

> <CNNscore>
0.6574731469

> <CNNaffinity>
7.0753312111

> <CNN_VS>
4.6518402100

> <CNNaffinity_variance>
0.1576052010

$$$$
[H]c1c([H])c(-n2c([H])nc3c([H])c(OC([H])([H])[H])c(OC([H])([H])[H])c([H])c32)c([H])c(C([H])([H])N([H])C(=O)C2([H])C([H])([H])C2([H])[H])c1[H]


 27 30  0  0  0  0  0  0  0  0999 V2000
   55.4658   -4.1599   -9.1811 C   0  0  0  0  0  0  0  0  0  0  0  0
   56.4939   -4.8009   -8.5181 C   0  0  0  0  0  0  0  0  0  0  0  0
   57.6763   -5.1342   -9.0837 C   0  0  0  0  0  0  0  0  0  0  0  0
   57.9039   -4.8226  -10.4272 C   0  0  0  0  0  0  0  0  0  0  0  0
   56.9076   -4.1853  -11.1348 C   0  0  0  0  0  0  0  0  0  0  0  0
   55.7069   -3.8540  -10.5340 C   0  0  0  0  0  0  0  0  0  0  0  0
   51.9211   -5.3956   -5.5196 C   0  0  0  0  0  0  0  0  0  0  0  0
   51.5118   -4.4846   -6.4481 C   0  0  0  0  0  0  0  0  0  0  0  0
   52.3713   -4.0429   -7.4476 C   0  0  0  0  0  0  0  0  0  0  0  0
   52.1129   -3.1563   -8.4509 N   0  0  0  0  0  0  0  0  0  0  0  0
   53.2649   -3.0818   -9.1616 C   0  0  0  0  0  0  0  0  0  0  0  0
   54.1784   -3.9059   -8.5904 N   0  0  0  0  0  0  0  0  0  0  0  0
   53.6556   -4.5201   -7.5185 C   0  0  0  0  0  0  0  0  0  0  0  0
   54.0906   -5.4282   -6.5925 C   0  0  0  0  0  0  0  0  0  0  0  0
   53.2607   -5.8849   -5.5956 C   0  0  0  0  0  0  0  0  0  0  0  0
   50.2888   -5.1189   -3.6659 C   0  0  0  0  0  0  0  0  0  0  0  0
   51.1163   -5.8771   -4.5023 O   0  0  0  0  0  0  0  0  0  0  0  0
   53.6232   -6.7779   -4.6568 O   0  0  0  0  0  0  0  0  0  0  0  0
   54.8042   -7.4495   -4.4356 C   0  0  0  0  0  0  0  0  0  0  0  0
   57.2011   -4.0181  -12.6084 C   0  0  0  0  0  0  0  0  0  0  0  0
   58.5579   -3.9534  -12.9355 N   0  0  0  0  0  0  0  0  0  0  0  0
   59.8483   -3.8951  -13.2439 C   0  0  0  0  0  0  0  0  0  0  0  0
   60.7511   -4.7026  -12.8275 O   0  0  0  0  0  0  0  0  0  0  0  0
   58.8132   -4.9071  -12.0097 H   0  0  0  0  0  0  0  0  0  0  0  0
   60.5012   -2.8404  -14.1582 C   0  0  0  0  0  0  0  0  0  0  0  0
   60.4478   -3.1081  -15.6807 C   0  0  0  0  0  0  0  0  0  0  0  0
   61.6751   -3.2647  -14.9023 C   0  0  0  0  0  0  0  0  0  0  0  0
 16 17  1  0  0  0
 17  7  1  0  0  0
  7  8  2  0  0  0
  8  9  1  0  0  0
  9 10  1  0  0  0
 10 11  2  0  0  0
 11 12  1  0  0  0
 12  1  1  0  0  0
  1  2  2  0  0  0
  2  3  1  0  0  0
  3  4  2  0  0  0
  4  5  1  0  0  0
  5 20  1  0  0  0
 20 21  1  0  0  0
 21 22  1  0  0  0
 22 23  2  0  0  0
 22 25  1  0  0  0
 25 26  1  0  0  0
 26 27  1  0  0  0
  5  6  2  0  0  0
 12 13  1  0  0  0
 13 14  1  0  0  0
 14 15  2  0  0  0
 15 18  1  0  0  0
 18 19  1  0  0  0
 15  7  1  0  0  0
 13  9  2  0  0  0
  6  1  1  0  0  0
 27 25  1  0  0  0
 21 24  1  0  0  0
M  END
> <minimizedAffinity>
-8.17817

> <CNNscore>
0.6153489351

> <CNNaffinity>
6.3014945984

> <CNN_VS>
3.8776180744

> <CNNaffinity_variance>
0.0591025241

$$$$
[H]c1c([H])c(-n2c([H])nc3c([H])c(OC([H])([H])[H])c(OC([H])([H])[H])c([H])c32)c([H])c(C([H])([H])N([H])C(=O)C2([H])C([H])([H])C2([H])[H])c1[H]


 27 30  0  0  0  0  0  0  0  0999 V2000
   54.0270   -4.0147   -7.6608 C   0  0  0  0  0  0  0  0  0  0  0  0
   53.7037   -2.9807   -8.5173 C   0  0  0  0  0  0  0  0  0  0  0  0
   52.4416   -2.5672   -8.7728 C   0  0  0  0  0  0  0  0  0  0  0  0
   51.3710   -3.2089   -8.1434 C   0  0  0  0  0  0  0  0  0  0  0  0
   51.6402   -4.2498   -7.2812 C   0  0  0  0  0  0  0  0  0  0  0  0
   52.9396   -4.6540   -7.0355 C   0  0  0  0  0  0  0  0  0  0  0  0
   58.5911   -5.4068   -9.8353 C   0  0  0  0  0  0  0  0  0  0  0  0
   58.4757   -5.6618   -8.5006 C   0  0  0  0  0  0  0  0  0  0  0  0
   57.3308   -5.3031   -7.7980 C   0  0  0  0  0  0  0  0  0  0  0  0
   57.0559   -5.5003   -6.4771 N   0  0  0  0  0  0  0  0  0  0  0  0
   55.8132   -4.9902   -6.2952 C   0  0  0  0  0  0  0  0  0  0  0  0
   55.3678   -4.5056   -7.4812 N   0  0  0  0  0  0  0  0  0  0  0  0
   56.2891   -4.6829   -8.4400 C   0  0  0  0  0  0  0  0  0  0  0  0
   56.3865   -4.4095   -9.7769 C   0  0  0  0  0  0  0  0  0  0  0  0
   57.5054   -4.7564  -10.4970 C   0  0  0  0  0  0  0  0  0  0  0  0
   60.9017   -6.2783  -10.1170 C   0  0  0  0  0  0  0  0  0  0  0  0
   59.7006   -5.7393  -10.5924 O   0  0  0  0  0  0  0  0  0  0  0  0
   57.6644   -4.5201  -11.8120 O   0  0  0  0  0  0  0  0  0  0  0  0
   57.0581   -3.6250  -12.6640 C   0  0  0  0  0  0  0  0  0  0  0  0
   50.4110   -4.9609   -6.7622 C   0  0  0  0  0  0  0  0  0  0  0  0
   50.1085   -4.7122   -5.4211 N   0  0  0  0  0  0  0  0  0  0  0  0
   49.8190   -4.4723   -4.1474 C   0  0  0  0  0  0  0  0  0  0  0  0
   49.1352   -3.4803   -3.7128 O   0  0  0  0  0  0  0  0  0  0  0  0
   49.6187   -3.4997   -5.7700 H   0  0  0  0  0  0  0  0  0  0  0  0
   50.2567   -5.3420   -2.9530 C   0  0  0  0  0  0  0  0  0  0  0  0
   51.7147   -5.1736   -2.4648 C   0  0  0  0  0  0  0  0  0  0  0  0
   51.2738   -6.3452   -3.2196 C   0  0  0  0  0  0  0  0  0  0  0  0
 16 17  1  0  0  0
 17  7  1  0  0  0
  7  8  2  0  0  0
  8  9  1  0  0  0
  9 10  1  0  0  0
 10 11  2  0  0  0
 11 12  1  0  0  0
 12  1  1  0  0  0
  1  2  2  0  0  0
  2  3  1  0  0  0
  3  4  2  0  0  0
  4  5  1  0  0  0
  5 20  1  0  0  0
 20 21  1  0  0  0
 21 22  1  0  0  0
 22 23  2  0  0  0
 22 25  1  0  0  0
 25 26  1  0  0  0
 26 27  1  0  0  0
  5  6  2  0  0  0
 12 13  1  0  0  0
 13 14  1  0  0  0
 14 15  2  0  0  0
 15 18  1  0  0  0
 18 19  1  0  0  0
 15  7  1  0  0  0
 13  9  2  0  0  0
  6  1  1  0  0  0
 27 25  1  0  0  0
 21 24  1  0  0  0
M  END
> <minimizedAffinity>
-8.76211

> <CNNscore>
0.6093849540

> <CNNaffinity>
6.7568550110

> <CNN_VS>
4.1175255775

> <CNNaffinity_variance>
0.0625105873

$$$$
[H]c1c([H])c(-n2c([H])nc3c([H])c(OC([H])([H])[H])c(OC([H])([H])[H])c([H])c32)c([H])c(C([H])([H])N([H])C(=O)C2([H])C([H])([H])C2([H])[H])c1[H]


 27 30  0  0  0  0  0  0  0  0999 V2000
   54.0003   -3.9434   -8.0419 C   0  0  0  0  0  0  0  0  0  0  0  0
   53.4513   -2.7998   -8.5878 C   0  0  0  0  0  0  0  0  0  0  0  0
   52.1483   -2.4531   -8.4822 C   0  0  0  0  0  0  0  0  0  0  0  0
   51.2733   -3.2869   -7.7800 C   0  0  0  0  0  0  0  0  0  0  0  0
   51.7712   -4.4429   -7.2186 C   0  0  0  0  0  0  0  0  0  0  0  0
   53.1080   -4.7756   -7.3396 C   0  0  0  0  0  0  0  0  0  0  0  0
   57.9830   -4.6158  -11.3862 C   0  0  0  0  0  0  0  0  0  0  0  0
   58.1955   -5.0780  -10.1210 C   0  0  0  0  0  0  0  0  0  0  0  0
   57.2330   -4.9239   -9.1296 C   0  0  0  0  0  0  0  0  0  0  0  0
   57.2848   -5.3402   -7.8322 N   0  0  0  0  0  0  0  0  0  0  0  0
   56.0983   -4.9659   -7.2937 C   0  0  0  0  0  0  0  0  0  0  0  0
   55.3660   -4.3453   -8.2521 N   0  0  0  0  0  0  0  0  0  0  0  0
   56.0434   -4.3003   -9.4092 C   0  0  0  0  0  0  0  0  0  0  0  0
   55.8121   -3.8210  -10.6694 C   0  0  0  0  0  0  0  0  0  0  0  0
   56.7448   -3.9630  -11.6698 C   0  0  0  0  0  0  0  0  0  0  0  0
   59.7286   -3.7300  -12.9177 C   0  0  0  0  0  0  0  0  0  0  0  0
   58.8972   -4.7388  -12.4176 O   0  0  0  0  0  0  0  0  0  0  0  0
   56.5800   -3.5185  -12.9290 O   0  0  0  0  0  0  0  0  0  0  0  0
   56.1033   -4.1331  -14.0647 C   0  0  0  0  0  0  0  0  0  0  0  0
   50.7199   -5.3375   -6.6021 C   0  0  0  0  0  0  0  0  0  0  0  0
   50.3291   -4.9828   -5.3085 N   0  0  0  0  0  0  0  0  0  0  0  0
   49.9558   -4.6423   -4.0804 C   0  0  0  0  0  0  0  0  0  0  0  0
   49.2297   -3.6321   -3.7755 O   0  0  0  0  0  0  0  0  0  0  0  0
   49.8426   -3.8151   -5.7897 H   0  0  0  0  0  0  0  0  0  0  0  0
   50.3311   -5.3981   -2.7910 C   0  0  0  0  0  0  0  0  0  0  0  0
   51.7713   -5.2020   -2.2618 C   0  0  0  0  0  0  0  0  0  0  0  0
   51.3411   -6.4353   -2.9181 C   0  0  0  0  0  0  0  0  0  0  0  0
 16 17  1  0  0  0
 17  7  1  0  0  0
  7  8  2  0  0  0
  8  9  1  0  0  0
  9 10  1  0  0  0
 10 11  2  0  0  0
 11 12  1  0  0  0
 12  1  1  0  0  0
  1  2  2  0  0  0
  2  3  1  0  0  0
  3  4  2  0  0  0
  4  5  1  0  0  0
  5 20  1  0  0  0
 20 21  1  0  0  0
 21 22  1  0  0  0
 22 23  2  0  0  0
 22 25  1  0  0  0
 25 26  1  0  0  0
 26 27  1  0  0  0
  5  6  2  0  0  0
 12 13  1  0  0  0
 13 14  1  0  0  0
 14 15  2  0  0  0
 15 18  1  0  0  0
 18 19  1  0  0  0
 15  7  1  0  0  0
 13  9  2  0  0  0
  6  1  1  0  0  0
 27 25  1  0  0  0
 21 24  1  0  0  0
M  END
> <minimizedAffinity>
-9.40824

> <CNNscore>
0.5928951502

> <CNNaffinity>
6.5677003860

> <CNN_VS>
3.8939576149

> <CNNaffinity_variance>
0.0717213601

$$$$
[H]c1c([H])c(-n2c([H])nc3c([H])c(OC([H])([H])[H])c(OC([H])([H])[H])c([H])c32)c([H])c(C([H])([H])N([H])C(=O)C2([H])C([H])([H])C2([H])[H])c1[H]


 27 30  0  0  0  0  0  0  0  0999 V2000
   52.1505   -4.7555   -6.2489 C   0  0  0  0  0  0  0  0  0  0  0  0
   50.8550   -4.8909   -5.7901 C   0  0  0  0  0  0  0  0  0  0  0  0
   50.5078   -5.5695   -4.6729 C   0  0  0  0  0  0  0  0  0  0  0  0
   51.5035   -6.1859   -3.9098 C   0  0  0  0  0  0  0  0  0  0  0  0
   52.8131   -6.0832   -4.3268 C   0  0  0  0  0  0  0  0  0  0  0  0
   53.1434   -5.3831   -5.4726 C   0  0  0  0  0  0  0  0  0  0  0  0
   55.7445   -3.8384   -9.9556 C   0  0  0  0  0  0  0  0  0  0  0  0
   54.5834   -3.1338  -10.0778 C   0  0  0  0  0  0  0  0  0  0  0  0
   53.5357   -3.3163   -9.1822 C   0  0  0  0  0  0  0  0  0  0  0  0
   52.3277   -2.6843   -9.1577 N   0  0  0  0  0  0  0  0  0  0  0  0
   51.6797   -3.2027   -8.0858 C   0  0  0  0  0  0  0  0  0  0  0  0
   52.4881   -4.1170   -7.4936 N   0  0  0  0  0  0  0  0  0  0  0  0
   53.6529   -4.2143   -8.1518 C   0  0  0  0  0  0  0  0  0  0  0  0
   54.8055   -4.9384   -8.0149 C   0  0  0  0  0  0  0  0  0  0  0  0
   55.8586   -4.7754   -8.8839 C   0  0  0  0  0  0  0  0  0  0  0  0
   56.9268   -4.2134  -12.1095 C   0  0  0  0  0  0  0  0  0  0  0  0
   56.8243   -3.7027  -10.8103 O   0  0  0  0  0  0  0  0  0  0  0  0
   57.0190   -5.4518   -8.8046 O   0  0  0  0  0  0  0  0  0  0  0  0
   58.2065   -5.1667   -8.1694 C   0  0  0  0  0  0  0  0  0  0  0  0
   53.7912   -6.8971   -3.5103 C   0  0  0  0  0  0  0  0  0  0  0  0
   54.6321   -6.1500   -2.6816 N   0  0  0  0  0  0  0  0  0  0  0  0
   55.4285   -5.4401   -1.8908 C   0  0  0  0  0  0  0  0  0  0  0  0
   55.1845   -5.1300   -0.6723 O   0  0  0  0  0  0  0  0  0  0  0  0
   53.6456   -6.0899   -1.7568 H   0  0  0  0  0  0  0  0  0  0  0  0
   56.7947   -4.8526   -2.2945 C   0  0  0  0  0  0  0  0  0  0  0  0
   58.0310   -5.7601   -2.0932 C   0  0  0  0  0  0  0  0  0  0  0  0
   57.7453   -4.6237   -1.2193 C   0  0  0  0  0  0  0  0  0  0  0  0
 16 17  1  0  0  0
 17  7  1  0  0  0
  7  8  2  0  0  0
  8  9  1  0  0  0
  9 10  1  0  0  0
 10 11  2  0  0  0
 11 12  1  0  0  0
 12  1  1  0  0  0
  1  2  2  0  0  0
  2  3  1  0  0  0
  3  4  2  0  0  0
  4  5  1  0  0  0
  5 20  1  0  0  0
 20 21  1  0  0  0
 21 22  1  0  0  0
 22 23  2  0  0  0
 22 25  1  0  0  0
 25 26  1  0  0  0
 26 27  1  0  0  0
  5  6  2  0  0  0
 12 13  1  0  0  0
 13 14  1  0  0  0
 14 15  2  0  0  0
 15 18  1  0  0  0
 18 19  1  0  0  0
 15  7  1  0  0  0
 13  9  2  0  0  0
  6  1  1  0  0  0
 27 25  1  0  0  0
 21 24  1  0  0  0
M  END
> <minimizedAffinity>
-7.78153

> <CNNscore>
0.5715736747

> <CNNaffinity>
6.6844892502

> <CNN_VS>
3.8206779957

> <CNNaffinity_variance>
0.1819931567

$$$$
[H]c1c([H])c(-n2c([H])nc3c([H])c(OC([H])([H])[H])c(OC([H])([H])[H])c([H])c32)c([H])c(C([H])([H])N([H])C(=O)C2([H])C([H])([H])C2([H])[H])c1[H]


 27 30  0  0  0  0  0  0  0  0999 V2000
   53.7808   -3.8730   -8.4858 C   0  0  0  0  0  0  0  0  0  0  0  0
   54.1187   -3.6665   -9.8088 C   0  0  0  0  0  0  0  0  0  0  0  0
   55.3046   -4.0158  -10.3573 C   0  0  0  0  0  0  0  0  0  0  0  0
   56.2740   -4.6286   -9.5580 C   0  0  0  0  0  0  0  0  0  0  0  0
   55.9872   -4.8541   -8.2290 C   0  0  0  0  0  0  0  0  0  0  0  0
   54.7668   -4.4886   -7.6912 C   0  0  0  0  0  0  0  0  0  0  0  0
   49.9712   -4.5855   -4.9535 C   0  0  0  0  0  0  0  0  0  0  0  0
   49.7733   -3.5601   -5.8304 C   0  0  0  0  0  0  0  0  0  0  0  0
   50.7280   -3.2420   -6.7898 C   0  0  0  0  0  0  0  0  0  0  0  0
   50.6751   -2.2662   -7.7408 N   0  0  0  0  0  0  0  0  0  0  0  0
   51.8365   -2.3820   -8.4303 C   0  0  0  0  0  0  0  0  0  0  0  0
   52.5546   -3.4022   -7.8980 N   0  0  0  0  0  0  0  0  0  0  0  0
   51.8940   -3.9601   -6.8724 C   0  0  0  0  0  0  0  0  0  0  0  0
   52.1176   -4.9877   -5.9973 C   0  0  0  0  0  0  0  0  0  0  0  0
   51.1891   -5.3261   -5.0411 C   0  0  0  0  0  0  0  0  0  0  0  0
   47.9106   -4.2513   -3.6045 C   0  0  0  0  0  0  0  0  0  0  0  0
   49.0618   -4.9545   -3.9781 O   0  0  0  0  0  0  0  0  0  0  0  0
   51.3443   -6.3252   -4.1535 O   0  0  0  0  0  0  0  0  0  0  0  0
   52.2725   -6.5337   -3.1585 C   0  0  0  0  0  0  0  0  0  0  0  0
   57.1483   -5.3940   -7.4254 C   0  0  0  0  0  0  0  0  0  0  0  0
   56.7911   -6.0855   -6.2650 N   0  0  0  0  0  0  0  0  0  0  0  0
   56.4483   -6.7443   -5.1642 C   0  0  0  0  0  0  0  0  0  0  0  0
   55.4618   -7.5543   -5.0573 O   0  0  0  0  0  0  0  0  0  0  0  0
   55.6488   -6.4856   -6.8708 H   0  0  0  0  0  0  0  0  0  0  0  0
   57.1723   -6.6532   -3.8069 C   0  0  0  0  0  0  0  0  0  0  0  0
   58.5144   -7.4115   -3.6800 C   0  0  0  0  0  0  0  0  0  0  0  0
   57.2853   -7.8874   -3.0481 C   0  0  0  0  0  0  0  0  0  0  0  0
 16 17  1  0  0  0
 17  7  1  0  0  0
  7  8  2  0  0  0
  8  9  1  0  0  0
  9 10  1  0  0  0
 10 11  2  0  0  0
 11 12  1  0  0  0
 12  1  1  0  0  0
  1  2  2  0  0  0
  2  3  1  0  0  0
  3  4  2  0  0  0
  4  5  1  0  0  0
  5 20  1  0  0  0
 20 21  1  0  0  0
 21 22  1  0  0  0
 22 23  2  0  0  0
 22 25  1  0  0  0
 25 26  1  0  0  0
 26 27  1  0  0  0
  5  6  2  0  0  0
 12 13  1  0  0  0
 13 14  1  0  0  0
 14 15  2  0  0  0
 15 18  1  0  0  0
 18 19  1  0  0  0
 15  7  1  0  0  0
 13  9  2  0  0  0
  6  1  1  0  0  0
 27 25  1  0  0  0
 21 24  1  0  0  0
M  END
> <minimizedAffinity>
-8.17003

> <CNNscore>
0.5489353538

> <CNNaffinity>
6.7266783714

> <CNN_VS>
3.6925115585

> <CNNaffinity_variance>
0.0945415273

$$$$
[H]OS(=O)(=O)c1c([H])c([H])c2c(c1[H])/C(=C(\[H])c1c([H])c3c([H])c(C(=O)N([H])[H])c([H])c([H])c3n1[H])C(=O)N2[H]


 32 35  0  0  0  0  0  0  0  0999 V2000
   53.8060   -4.4499   -7.5325 C   0  0  0  0  0  0  0  0  0  0  0  0
   52.7622   -3.6886   -7.7751 C   0  0  0  0  0  0  0  0  0  0  0  0
   52.5020   -2.7916   -8.8833 C   0  0  0  0  0  0  0  0  0  0  0  0
   53.2700   -2.5414   -9.8485 O   0  0  0  0  0  0  0  0  0  0  0  0
   51.1991   -2.2456   -8.6575 N   0  0  0  0  0  0  0  0  0  0  0  0
   50.6430   -2.7560   -7.4705 C   0  0  0  0  0  0  0  0  0  0  0  0
   49.4408   -2.5669   -6.7994 C   0  0  0  0  0  0  0  0  0  0  0  0
   49.1970   -3.2365   -5.6249 C   0  0  0  0  0  0  0  0  0  0  0  0
   50.0958   -4.1081   -5.0556 C   0  0  0  0  0  0  0  0  0  0  0  0
   51.2832   -4.2935   -5.7203 C   0  0  0  0  0  0  0  0  0  0  0  0
   51.5447   -3.6216   -6.9124 C   0  0  0  0  0  0  0  0  0  0  0  0
   50.7510   -1.5679   -9.2985 H   0  0  0  0  0  0  0  0  0  0  0  0
   57.9769   -4.2857  -11.7743 C   0  0  0  0  0  0  0  0  0  0  0  0
   58.6961   -5.0146  -10.8363 C   0  0  0  0  0  0  0  0  0  0  0  0
   58.1633   -5.3406   -9.6111 C   0  0  0  0  0  0  0  0  0  0  0  0
   56.8592   -4.9006   -9.3569 C   0  0  0  0  0  0  0  0  0  0  0  0
   56.1180   -5.0765   -8.2673 N   0  0  0  0  0  0  0  0  0  0  0  0
   54.9380   -4.5006   -8.4336 C   0  0  0  0  0  0  0  0  0  0  0  0
   54.9353   -3.9331   -9.6884 C   0  0  0  0  0  0  0  0  0  0  0  0
   56.1458   -4.1849  -10.2708 C   0  0  0  0  0  0  0  0  0  0  0  0
   56.6953   -3.8562  -11.5179 C   0  0  0  0  0  0  0  0  0  0  0  0
   56.4265   -5.5926   -7.3747 H   0  0  0  0  0  0  0  0  0  0  0  0
   57.8210   -3.4001  -14.0926 N   0  0  0  0  0  0  0  0  0  0  0  0
   58.6065   -3.9684  -13.0716 C   0  0  0  0  0  0  0  0  0  0  0  0
   59.8179   -4.2210  -13.2052 O   0  0  0  0  0  0  0  0  0  0  0  0
   57.7441   -2.3702  -14.1683 H   0  0  0  0  0  0  0  0  0  0  0  0
   57.3166   -3.9902  -14.7722 H   0  0  0  0  0  0  0  0  0  0  0  0
   49.7346   -4.9412   -3.5486 S   0  0  0  0  0  0  0  0  0  0  0  0
   48.1472   -4.7209   -3.0835 O   0  0  0  0  0  0  0  0  0  0  0  0
   50.6768   -4.3838   -2.5001 O   0  0  0  0  0  0  0  0  0  0  0  0
   50.0703   -6.3923   -3.6944 O   0  0  0  0  0  0  0  0  0  0  0  0
   48.1394   -4.3409   -2.1841 H   0  0  0  0  0  0  0  0  0  0  0  0
 23 24  1  0  0  0
 24 25  2  0  0  0
 24 13  1  0  0  0
 13 14  2  0  0  0
 14 15  1  0  0  0
 15 16  2  0  0  0
 16 17  1  0  0  0
 17 18  1  0  0  0
 18  1  1  0  0  0
  1  2  2  0  0  0
  2  3  1  0  0  0
  3  4  2  0  0  0
  3  5  1  0  0  0
  5  6  1  0  0  0
  6  7  2  0  0  0
  7  8  1  0  0  0
  8  9  2  0  0  0
  9 10  1  0  0  0
 10 11  2  0  0  0
  9 28  1  0  0  0
 28 29  1  0  0  0
 28 30  2  0  0  0
 28 31  2  0  0  0
 18 19  2  0  0  0
 19 20  1  0  0  0
 20 21  2  0  0  0
 21 13  1  0  0  0
 20 16  1  0  0  0
 11  2  1  0  0  0
 11  6  1  0  0  0
 23 26  1  0  0  0
 23 27  1  0  0  0
 17 22  1  0  0  0
  5 12  1  0  0  0
 29 32  1  0  0  0
M  END
> <minimizedAffinity>
-11.44720

> <CNNscore>
0.9308332205

> <CNNaffinity>
6.9536261559

> <CNN_VS>
6.4726662636

> <CNNaffinity_variance>
0.1377078444

$$$$
[H]OS(=O)(=O)c1c([H])c([H])c2c(c1[H])/C(=C(\[H])c1c([H])c3c([H])c(C(=O)N([H])[H])c([H])c([H])c3n1[H])C(=O)N2[H]


 32 35  0  0  0  0  0  0  0  0999 V2000
   54.0148   -4.5546   -7.7377 C   0  0  0  0  0  0  0  0  0  0  0  0
   52.8897   -3.8791   -7.8139 C   0  0  0  0  0  0  0  0  0  0  0  0
   52.4054   -2.9919   -8.8525 C   0  0  0  0  0  0  0  0  0  0  0  0
   53.0077   -2.6660   -9.9084 O   0  0  0  0  0  0  0  0  0  0  0  0
   51.1077   -2.5586   -8.4343 N   0  0  0  0  0  0  0  0  0  0  0  0
   50.7666   -3.1292   -7.1946 C   0  0  0  0  0  0  0  0  0  0  0  0
   49.6593   -3.0493   -6.3584 C   0  0  0  0  0  0  0  0  0  0  0  0
   49.6374   -3.7525   -5.1785 C   0  0  0  0  0  0  0  0  0  0  0  0
   50.6741   -4.5544   -4.7615 C   0  0  0  0  0  0  0  0  0  0  0  0
   51.7673   -4.6319   -5.5893 C   0  0  0  0  0  0  0  0  0  0  0  0
   51.8041   -3.9247   -6.7890 C   0  0  0  0  0  0  0  0  0  0  0  0
   50.5212   -1.9117   -8.9897 H   0  0  0  0  0  0  0  0  0  0  0  0
   57.4913   -4.1145  -12.5477 C   0  0  0  0  0  0  0  0  0  0  0  0
   58.4551   -4.5855  -11.6658 C   0  0  0  0  0  0  0  0  0  0  0  0
   58.1591   -4.8608  -10.3513 C   0  0  0  0  0  0  0  0  0  0  0  0
   56.8371   -4.6422   -9.9468 C   0  0  0  0  0  0  0  0  0  0  0  0
   56.2915   -4.8250   -8.7483 N   0  0  0  0  0  0  0  0  0  0  0  0
   55.0093   -4.4993   -8.7884 C   0  0  0  0  0  0  0  0  0  0  0  0
   54.7332   -4.0905  -10.0741 C   0  0  0  0  0  0  0  0  0  0  0  0
   55.8848   -4.1803  -10.8047 C   0  0  0  0  0  0  0  0  0  0  0  0
   56.1936   -3.9018  -12.1434 C   0  0  0  0  0  0  0  0  0  0  0  0
   56.8081   -5.1692   -7.8692 H   0  0  0  0  0  0  0  0  0  0  0  0
   59.0872   -3.1723  -14.2056 N   0  0  0  0  0  0  0  0  0  0  0  0
   57.8739   -3.8382  -13.9467 C   0  0  0  0  0  0  0  0  0  0  0  0
   57.0969   -4.2112  -14.8447 O   0  0  0  0  0  0  0  0  0  0  0  0
   59.9543   -3.7208  -14.3459 H   0  0  0  0  0  0  0  0  0  0  0  0
   59.1328   -2.1430  -14.2593 H   0  0  0  0  0  0  0  0  0  0  0  0
   50.5961   -5.4348   -3.2403 S   0  0  0  0  0  0  0  0  0  0  0  0
   51.7176   -4.8723   -2.1401 O   0  0  0  0  0  0  0  0  0  0  0  0
   50.8539   -6.8937   -3.5618 O   0  0  0  0  0  0  0  0  0  0  0  0
   49.2038   -5.3583   -2.6968 O   0  0  0  0  0  0  0  0  0  0  0  0
   52.2777   -5.6216   -1.8604 H   0  0  0  0  0  0  0  0  0  0  0  0
 23 24  1  0  0  0
 24 25  2  0  0  0
 24 13  1  0  0  0
 13 14  2  0  0  0
 14 15  1  0  0  0
 15 16  2  0  0  0
 16 17  1  0  0  0
 17 18  1  0  0  0
 18  1  1  0  0  0
  1  2  2  0  0  0
  2  3  1  0  0  0
  3  4  2  0  0  0
  3  5  1  0  0  0
  5  6  1  0  0  0
  6  7  2  0  0  0
  7  8  1  0  0  0
  8  9  2  0  0  0
  9 10  1  0  0  0
 10 11  2  0  0  0
  9 28  1  0  0  0
 28 29  1  0  0  0
 28 30  2  0  0  0
 28 31  2  0  0  0
 18 19  2  0  0  0
 19 20  1  0  0  0
 20 21  2  0  0  0
 21 13  1  0  0  0
 20 16  1  0  0  0
 11  2  1  0  0  0
 11  6  1  0  0  0
 23 26  1  0  0  0
 23 27  1  0  0  0
 17 22  1  0  0  0
  5 12  1  0  0  0
 29 32  1  0  0  0
M  END
> <minimizedAffinity>
-11.08906

> <CNNscore>
0.9195396900

> <CNNaffinity>
6.8789243698

> <CNN_VS>
6.3254437447

> <CNNaffinity_variance>
0.1085682288

$$$$
[H]OS(=O)(=O)c1c([H])c([H])c2c(c1[H])/C(=C(\[H])c1c([H])c3c([H])c(C(=O)N([H])[H])c([H])c([H])c3n1[H])C(=O)N2[H]


 32 35  0  0  0  0  0  0  0  0999 V2000
   54.1090   -4.6429   -7.9386 C   0  0  0  0  0  0  0  0  0  0  0  0
   52.9575   -4.0154   -7.8471 C   0  0  0  0  0  0  0  0  0  0  0  0
   52.3262   -3.0902   -8.7667 C   0  0  0  0  0  0  0  0  0  0  0  0
   52.7933   -2.6747   -9.8591 O   0  0  0  0  0  0  0  0  0  0  0  0
   51.0681   -2.7417   -8.1816 N   0  0  0  0  0  0  0  0  0  0  0  0
   50.8903   -3.4006   -6.9515 C   0  0  0  0  0  0  0  0  0  0  0  0
   49.8817   -3.4209   -5.9955 C   0  0  0  0  0  0  0  0  0  0  0  0
   50.0193   -4.1940   -4.8683 C   0  0  0  0  0  0  0  0  0  0  0  0
   51.1260   -4.9719   -4.6203 C   0  0  0  0  0  0  0  0  0  0  0  0
   52.1216   -4.9503   -5.5662 C   0  0  0  0  0  0  0  0  0  0  0  0
   51.9964   -4.1713   -6.7144 C   0  0  0  0  0  0  0  0  0  0  0  0
   50.3987   -2.0898   -8.6263 H   0  0  0  0  0  0  0  0  0  0  0  0
   58.2906   -4.0609  -12.1328 C   0  0  0  0  0  0  0  0  0  0  0  0
   57.1862   -3.8137  -12.9377 C   0  0  0  0  0  0  0  0  0  0  0  0
   55.9065   -3.8325  -12.4345 C   0  0  0  0  0  0  0  0  0  0  0  0
   55.7730   -4.1135  -11.0698 C   0  0  0  0  0  0  0  0  0  0  0  0
   54.6645   -4.1926  -10.3399 N   0  0  0  0  0  0  0  0  0  0  0  0
   54.9764   -4.4799   -9.0862 C   0  0  0  0  0  0  0  0  0  0  0  0
   56.3478   -4.5881   -9.0225 C   0  0  0  0  0  0  0  0  0  0  0  0
   56.8504   -4.3573  -10.2723 C   0  0  0  0  0  0  0  0  0  0  0  0
   58.1522   -4.3365  -10.7921 C   0  0  0  0  0  0  0  0  0  0  0  0
   53.6611   -4.0610  -10.7061 H   0  0  0  0  0  0  0  0  0  0  0  0
   59.9370   -3.0316  -13.6863 N   0  0  0  0  0  0  0  0  0  0  0  0
   59.6383   -4.0257  -12.7348 C   0  0  0  0  0  0  0  0  0  0  0  0
   60.4593   -4.8868  -12.3693 O   0  0  0  0  0  0  0  0  0  0  0  0
   60.3312   -2.1257  -13.3760 H   0  0  0  0  0  0  0  0  0  0  0  0
   59.7711   -3.1860  -14.6928 H   0  0  0  0  0  0  0  0  0  0  0  0
   51.2529   -5.9447   -3.1598 S   0  0  0  0  0  0  0  0  0  0  0  0
   49.8421   -5.9127   -2.2690 O   0  0  0  0  0  0  0  0  0  0  0  0
   52.4035   -5.3782   -2.3516 O   0  0  0  0  0  0  0  0  0  0  0  0
   51.6400   -7.3421   -3.5299 O   0  0  0  0  0  0  0  0  0  0  0  0
   50.0536   -5.6026   -1.3677 H   0  0  0  0  0  0  0  0  0  0  0  0
 23 24  1  0  0  0
 24 25  2  0  0  0
 24 13  1  0  0  0
 13 14  2  0  0  0
 14 15  1  0  0  0
 15 16  2  0  0  0
 16 17  1  0  0  0
 17 18  1  0  0  0
 18  1  1  0  0  0
  1  2  2  0  0  0
  2  3  1  0  0  0
  3  4  2  0  0  0
  3  5  1  0  0  0
  5  6  1  0  0  0
  6  7  2  0  0  0
  7  8  1  0  0  0
  8  9  2  0  0  0
  9 10  1  0  0  0
 10 11  2  0  0  0
  9 28  1  0  0  0
 28 29  1  0  0  0
 28 30  2  0  0  0
 28 31  2  0  0  0
 18 19  2  0  0  0
 19 20  1  0  0  0
 20 21  2  0  0  0
 21 13  1  0  0  0
 20 16  1  0  0  0
 11  2  1  0  0  0
 11  6  1  0  0  0
 23 26  1  0  0  0
 23 27  1  0  0  0
 17 22  1  0  0  0
  5 12  1  0  0  0
 29 32  1  0  0  0
M  END
> <minimizedAffinity>
-10.33970

> <CNNscore>
0.8897793293

> <CNNaffinity>
6.7837524414

> <CNN_VS>
6.0360426903

> <CNNaffinity_variance>
0.1045205817

$$$$
[H]OS(=O)(=O)c1c([H])c([H])c2c(c1[H])/C(=C(\[H])c1c([H])c3c([H])c(C(=O)N([H])[H])c([H])c([H])c3n1[H])C(=O)N2[H]


 32 35  0  0  0  0  0  0  0  0999 V2000
   53.9039   -4.6421   -7.2994 C   0  0  0  0  0  0  0  0  0  0  0  0
   52.9361   -3.8471   -7.6986 C   0  0  0  0  0  0  0  0  0  0  0  0
   52.8386   -3.0240   -8.8873 C   0  0  0  0  0  0  0  0  0  0  0  0
   53.7099   -2.8884   -9.7854 O   0  0  0  0  0  0  0  0  0  0  0  0
   51.5552   -2.3943   -8.8327 N   0  0  0  0  0  0  0  0  0  0  0  0
   50.8573   -2.7833   -7.6749 C   0  0  0  0  0  0  0  0  0  0  0  0
   49.6095   -2.4806   -7.1432 C   0  0  0  0  0  0  0  0  0  0  0  0
   49.2136   -3.0457   -5.9552 C   0  0  0  0  0  0  0  0  0  0  0  0
   49.9992   -3.9181   -5.2387 C   0  0  0  0  0  0  0  0  0  0  0  0
   51.2319   -4.2158   -5.7659 C   0  0  0  0  0  0  0  0  0  0  0  0
   51.6473   -3.6507   -6.9696 C   0  0  0  0  0  0  0  0  0  0  0  0
   51.2126   -1.7442   -9.5614 H   0  0  0  0  0  0  0  0  0  0  0  0
   59.2162   -5.6199   -9.7974 C   0  0  0  0  0  0  0  0  0  0  0  0
   58.5820   -5.0902  -10.9135 C   0  0  0  0  0  0  0  0  0  0  0  0
   57.2687   -4.6842  -10.8739 C   0  0  0  0  0  0  0  0  0  0  0  0
   56.6029   -4.8319   -9.6516 C   0  0  0  0  0  0  0  0  0  0  0  0
   55.3468   -4.5231   -9.3443 N   0  0  0  0  0  0  0  0  0  0  0  0
   55.1126   -4.8206   -8.0761 C   0  0  0  0  0  0  0  0  0  0  0  0
   56.2770   -5.3431   -7.5588 C   0  0  0  0  0  0  0  0  0  0  0  0
   57.2167   -5.3505   -8.5512 C   0  0  0  0  0  0  0  0  0  0  0  0
   58.5558   -5.7623   -8.5989 C   0  0  0  0  0  0  0  0  0  0  0  0
   54.6187   -4.1093  -10.0202 H   0  0  0  0  0  0  0  0  0  0  0  0
   61.3438   -6.3423   -8.7323 N   0  0  0  0  0  0  0  0  0  0  0  0
   60.6284   -6.0368   -9.9060 C   0  0  0  0  0  0  0  0  0  0  0  0
   61.1283   -6.1001  -11.0441 O   0  0  0  0  0  0  0  0  0  0  0  0
   61.3512   -7.3137   -8.3736 H   0  0  0  0  0  0  0  0  0  0  0  0
   61.8648   -5.6155   -8.2178 H   0  0  0  0  0  0  0  0  0  0  0  0
   49.4446   -4.6147   -3.7212 S   0  0  0  0  0  0  0  0  0  0  0  0
   47.8168   -4.3439   -3.4730 O   0  0  0  0  0  0  0  0  0  0  0  0
   50.2632   -3.9748   -2.6174 O   0  0  0  0  0  0  0  0  0  0  0  0
   49.7702   -6.0752   -3.7007 O   0  0  0  0  0  0  0  0  0  0  0  0
   47.7073   -3.8872   -2.6170 H   0  0  0  0  0  0  0  0  0  0  0  0
 23 24  1  0  0  0
 24 25  2  0  0  0
 24 13  1  0  0  0
 13 14  2  0  0  0
 14 15  1  0  0  0
 15 16  2  0  0  0
 16 17  1  0  0  0
 17 18  1  0  0  0
 18  1  1  0  0  0
  1  2  2  0  0  0
  2  3  1  0  0  0
  3  4  2  0  0  0
  3  5  1  0  0  0
  5  6  1  0  0  0
  6  7  2  0  0  0
  7  8  1  0  0  0
  8  9  2  0  0  0
  9 10  1  0  0  0
 10 11  2  0  0  0
  9 28  1  0  0  0
 28 29  1  0  0  0
 28 30  2  0  0  0
 28 31  2  0  0  0
 18 19  2  0  0  0
 19 20  1  0  0  0
 20 21  2  0  0  0
 21 13  1  0  0  0
 20 16  1  0  0  0
 11  2  1  0  0  0
 11  6  1  0  0  0
 23 26  1  0  0  0
 23 27  1  0  0  0
 17 22  1  0  0  0
  5 12  1  0  0  0
 29 32  1  0  0  0
M  END
> <minimizedAffinity>
-10.17586

> <CNNscore>
0.8846315145

> <CNNaffinity>
6.8184852600

> <CNN_VS>
6.0318470001

> <CNNaffinity_variance>
0.1461070329

$$$$
[H]OS(=O)(=O)c1c([H])c([H])c2c(c1[H])/C(=C(\[H])c1c([H])c3c([H])c(C(=O)N([H])[H])c([H])c([H])c3n1[H])C(=O)N2[H]


 32 35  0  0  0  0  0  0  0  0999 V2000
   53.5798   -3.8257   -9.5353 C   0  0  0  0  0  0  0  0  0  0  0  0
   54.8472   -4.0679   -9.2840 C   0  0  0  0  0  0  0  0  0  0  0  0
   55.5236   -4.2658   -8.0177 C   0  0  0  0  0  0  0  0  0  0  0  0
   55.0085   -4.2140   -6.8705 O   0  0  0  0  0  0  0  0  0  0  0  0
   56.8940   -4.5281   -8.3338 N   0  0  0  0  0  0  0  0  0  0  0  0
   57.0991   -4.5013   -9.7252 C   0  0  0  0  0  0  0  0  0  0  0  0
   58.2029   -4.6840  -10.5496 C   0  0  0  0  0  0  0  0  0  0  0  0
   58.0650   -4.5890  -11.9131 C   0  0  0  0  0  0  0  0  0  0  0  0
   56.8668   -4.3163  -12.5307 C   0  0  0  0  0  0  0  0  0  0  0  0
   55.7773   -4.1361  -11.7142 C   0  0  0  0  0  0  0  0  0  0  0  0
   55.9015   -4.2294  -10.3297 C   0  0  0  0  0  0  0  0  0  0  0  0
   57.6156   -4.7096   -7.6146 H   0  0  0  0  0  0  0  0  0  0  0  0
   49.8493   -4.1074   -4.9071 C   0  0  0  0  0  0  0  0  0  0  0  0
   49.3256   -2.9645   -5.4971 C   0  0  0  0  0  0  0  0  0  0  0  0
   49.8548   -2.4407   -6.6532 C   0  0  0  0  0  0  0  0  0  0  0  0
   50.9483   -3.1175   -7.2057 C   0  0  0  0  0  0  0  0  0  0  0  0
   51.6396   -2.8275   -8.3037 N   0  0  0  0  0  0  0  0  0  0  0  0
   52.5991   -3.7228   -8.4753 C   0  0  0  0  0  0  0  0  0  0  0  0
   52.5092   -4.6203   -7.4347 C   0  0  0  0  0  0  0  0  0  0  0  0
   51.4690   -4.2394   -6.6341 C   0  0  0  0  0  0  0  0  0  0  0  0
   50.9244   -4.7679   -5.4554 C   0  0  0  0  0  0  0  0  0  0  0  0
   51.4644   -1.9866   -8.9520 H   0  0  0  0  0  0  0  0  0  0  0  0
   50.0110   -5.4032   -2.7909 N   0  0  0  0  0  0  0  0  0  0  0  0
   49.2349   -4.6191   -3.6659 C   0  0  0  0  0  0  0  0  0  0  0  0
   48.0441   -4.3304   -3.4467 O   0  0  0  0  0  0  0  0  0  0  0  0
   50.5493   -4.9469   -2.0331 H   0  0  0  0  0  0  0  0  0  0  0  0
   50.0560   -6.4293   -2.8880 H   0  0  0  0  0  0  0  0  0  0  0  0
   56.7438   -4.2053  -14.2823 S   0  0  0  0  0  0  0  0  0  0  0  0
   56.4029   -5.6849  -14.9748 O   0  0  0  0  0  0  0  0  0  0  0  0
   58.0733   -3.6782  -14.7848 O   0  0  0  0  0  0  0  0  0  0  0  0
   55.7158   -3.1786  -14.6407 O   0  0  0  0  0  0  0  0  0  0  0  0
   57.0976   -5.8855  -15.6309 H   0  0  0  0  0  0  0  0  0  0  0  0
 23 24  1  0  0  0
 24 25  2  0  0  0
 24 13  1  0  0  0
 13 14  2  0  0  0
 14 15  1  0  0  0
 15 16  2  0  0  0
 16 17  1  0  0  0
 17 18  1  0  0  0
 18  1  1  0  0  0
  1  2  2  0  0  0
  2  3  1  0  0  0
  3  4  2  0  0  0
  3  5  1  0  0  0
  5  6  1  0  0  0
  6  7  2  0  0  0
  7  8  1  0  0  0
  8  9  2  0  0  0
  9 10  1  0  0  0
 10 11  2  0  0  0
  9 28  1  0  0  0
 28 29  1  0  0  0
 28 30  2  0  0  0
 28 31  2  0  0  0
 18 19  2  0  0  0
 19 20  1  0  0  0
 20 21  2  0  0  0
 21 13  1  0  0  0
 20 16  1  0  0  0
 11  2  1  0  0  0
 11  6  1  0  0  0
 23 26  1  0  0  0
 23 27  1  0  0  0
 17 22  1  0  0  0
  5 12  1  0  0  0
 29 32  1  0  0  0
M  END
> <minimizedAffinity>
-12.36997

> <CNNscore>
0.7583657503

> <CNNaffinity>
6.8052582741

> <CNN_VS>
5.1608748436

> <CNNaffinity_variance>
0.1287683249

$$$$
[H]OS(=O)(=O)c1c([H])c([H])c2c(c1[H])/C(=C(\[H])c1c([H])c3c([H])c(C(=O)N([H])[H])c([H])c([H])c3n1[H])C(=O)N2[H]


 32 35  0  0  0  0  0  0  0  0999 V2000
   55.0825   -4.9946   -7.8862 C   0  0  0  0  0  0  0  0  0  0  0  0
   55.4554   -4.5619   -9.0701 C   0  0  0  0  0  0  0  0  0  0  0  0
   54.7465   -3.7317  -10.0233 C   0  0  0  0  0  0  0  0  0  0  0  0
   53.5809   -3.2721   -9.9040 O   0  0  0  0  0  0  0  0  0  0  0  0
   55.6361   -3.5432  -11.1277 N   0  0  0  0  0  0  0  0  0  0  0  0
   56.8536   -4.2126  -10.9077 C   0  0  0  0  0  0  0  0  0  0  0  0
   58.0296   -4.3570  -11.6341 C   0  0  0  0  0  0  0  0  0  0  0  0
   59.0657   -5.1003  -11.1230 C   0  0  0  0  0  0  0  0  0  0  0  0
   59.0093   -5.7287   -9.9010 C   0  0  0  0  0  0  0  0  0  0  0  0
   57.8462   -5.5848   -9.1848 C   0  0  0  0  0  0  0  0  0  0  0  0
   56.7869   -4.8341   -9.6899 C   0  0  0  0  0  0  0  0  0  0  0  0
   55.3900   -2.9842  -11.9632 H   0  0  0  0  0  0  0  0  0  0  0  0
   49.9356   -4.1769   -5.0128 C   0  0  0  0  0  0  0  0  0  0  0  0
   49.6963   -3.3096   -6.0706 C   0  0  0  0  0  0  0  0  0  0  0  0
   50.6214   -3.1153   -7.0694 C   0  0  0  0  0  0  0  0  0  0  0  0
   51.8169   -3.8359   -6.9662 C   0  0  0  0  0  0  0  0  0  0  0  0
   52.8646   -3.8335   -7.7846 N   0  0  0  0  0  0  0  0  0  0  0  0
   53.7914   -4.6584   -7.3241 C   0  0  0  0  0  0  0  0  0  0  0  0
   53.3051   -5.2069   -6.1582 C   0  0  0  0  0  0  0  0  0  0  0  0
   52.0607   -4.6890   -5.9321 C   0  0  0  0  0  0  0  0  0  0  0  0
   51.1130   -4.8822   -4.9174 C   0  0  0  0  0  0  0  0  0  0  0  0
   52.9612   -3.2425   -8.6789 H   0  0  0  0  0  0  0  0  0  0  0  0
   47.7127   -3.5911   -4.0647 N   0  0  0  0  0  0  0  0  0  0  0  0
   48.9009   -4.3409   -3.9723 C   0  0  0  0  0  0  0  0  0  0  0  0
   49.1289   -5.1445   -3.0495 O   0  0  0  0  0  0  0  0  0  0  0  0
   46.8987   -3.9794   -4.5737 H   0  0  0  0  0  0  0  0  0  0  0  0
   47.6335   -2.6570   -3.6340 H   0  0  0  0  0  0  0  0  0  0  0  0
   60.3654   -6.6695   -9.2916 S   0  0  0  0  0  0  0  0  0  0  0  0
   60.3876   -6.7166   -7.6236 O   0  0  0  0  0  0  0  0  0  0  0  0
   61.6273   -6.0172   -9.8207 O   0  0  0  0  0  0  0  0  0  0  0  0
   60.3171   -8.0440   -9.8816 O   0  0  0  0  0  0  0  0  0  0  0  0
   61.2514   -6.3800   -7.3172 H   0  0  0  0  0  0  0  0  0  0  0  0
 23 24  1  0  0  0
 24 25  2  0  0  0
 24 13  1  0  0  0
 13 14  2  0  0  0
 14 15  1  0  0  0
 15 16  2  0  0  0
 16 17  1  0  0  0
 17 18  1  0  0  0
 18  1  1  0  0  0
  1  2  2  0  0  0
  2  3  1  0  0  0
  3  4  2  0  0  0
  3  5  1  0  0  0
  5  6  1  0  0  0
  6  7  2  0  0  0
  7  8  1  0  0  0
  8  9  2  0  0  0
  9 10  1  0  0  0
 10 11  2  0  0  0
  9 28  1  0  0  0
 28 29  1  0  0  0
 28 30  2  0  0  0
 28 31  2  0  0  0
 18 19  2  0  0  0
 19 20  1  0  0  0
 20 21  2  0  0  0
 21 13  1  0  0  0
 20 16  1  0  0  0
 11  2  1  0  0  0
 11  6  1  0  0  0
 23 26  1  0  0  0
 23 27  1  0  0  0
 17 22  1  0  0  0
  5 12  1  0  0  0
 29 32  1  0  0  0
M  END
> <minimizedAffinity>
-10.65773

> <CNNscore>
0.7473024130

> <CNNaffinity>
6.6798372269

> <CNN_VS>
4.9918584824

> <CNNaffinity_variance>
0.2043004930

$$$$
[H]OS(=O)(=O)c1c([H])c([H])c2c(c1[H])/C(=C(\[H])c1c([H])c3c([H])c(C(=O)N([H])[H])c([H])c([H])c3n1[H])C(=O)N2[H]


 32 35  0  0  0  0  0  0  0  0999 V2000
   55.5188   -4.9628   -8.6606 C   0  0  0  0  0  0  0  0  0  0  0  0
   54.3035   -4.5766   -8.3416 C   0  0  0  0  0  0  0  0  0  0  0  0
   53.3474   -3.7929   -9.0979 C   0  0  0  0  0  0  0  0  0  0  0  0
   53.5178   -3.2904  -10.2392 O   0  0  0  0  0  0  0  0  0  0  0  0
   52.1735   -3.7026   -8.2853 N   0  0  0  0  0  0  0  0  0  0  0  0
   52.3544   -4.3865   -7.0694 C   0  0  0  0  0  0  0  0  0  0  0  0
   51.5602   -4.6090   -5.9508 C   0  0  0  0  0  0  0  0  0  0  0  0
   52.0486   -5.3421   -4.8966 C   0  0  0  0  0  0  0  0  0  0  0  0
   53.3120   -5.8853   -4.8795 C   0  0  0  0  0  0  0  0  0  0  0  0
   54.0951   -5.6642   -5.9859 C   0  0  0  0  0  0  0  0  0  0  0  0
   53.6137   -4.9229   -7.0627 C   0  0  0  0  0  0  0  0  0  0  0  0
   51.3204   -3.1954   -8.5784 H   0  0  0  0  0  0  0  0  0  0  0  0
   58.6746   -3.5675  -13.5093 C   0  0  0  0  0  0  0  0  0  0  0  0
   57.4135   -3.5165  -14.0888 C   0  0  0  0  0  0  0  0  0  0  0  0
   56.2741   -3.7765  -13.3640 C   0  0  0  0  0  0  0  0  0  0  0  0
   56.4492   -4.0954  -12.0125 C   0  0  0  0  0  0  0  0  0  0  0  0
   55.5282   -4.3863  -11.0988 N   0  0  0  0  0  0  0  0  0  0  0  0
   56.1142   -4.6281   -9.9370 C   0  0  0  0  0  0  0  0  0  0  0  0
   57.4705   -4.4836  -10.1274 C   0  0  0  0  0  0  0  0  0  0  0  0
   57.6823   -4.1479  -11.4352 C   0  0  0  0  0  0  0  0  0  0  0  0
   58.8396   -3.8816  -12.1801 C   0  0  0  0  0  0  0  0  0  0  0  0
   54.4671   -4.4362  -11.2710 H   0  0  0  0  0  0  0  0  0  0  0  0
   60.8351   -2.3868  -13.8574 N   0  0  0  0  0  0  0  0  0  0  0  0
   59.8584   -3.2774  -14.3426 C   0  0  0  0  0  0  0  0  0  0  0  0
   59.9402   -3.8403  -15.4497 O   0  0  0  0  0  0  0  0  0  0  0  0
   61.6316   -2.7498  -13.3040 H   0  0  0  0  0  0  0  0  0  0  0  0
   60.7754   -1.3735  -14.0418 H   0  0  0  0  0  0  0  0  0  0  0  0
   53.8896   -6.8171   -3.5034 S   0  0  0  0  0  0  0  0  0  0  0  0
   54.7973   -8.1329   -3.9826 O   0  0  0  0  0  0  0  0  0  0  0  0
   52.6652   -7.2697   -2.7326 O   0  0  0  0  0  0  0  0  0  0  0  0
   54.6609   -5.9188   -2.5881 O   0  0  0  0  0  0  0  0  0  0  0  0
   54.3967   -8.9383   -3.6030 H   0  0  0  0  0  0  0  0  0  0  0  0
 23 24  1  0  0  0
 24 25  2  0  0  0
 24 13  1  0  0  0
 13 14  2  0  0  0
 14 15  1  0  0  0
 15 16  2  0  0  0
 16 17  1  0  0  0
 17 18  1  0  0  0
 18  1  1  0  0  0
  1  2  2  0  0  0
  2  3  1  0  0  0
  3  4  2  0  0  0
  3  5  1  0  0  0
  5  6  1  0  0  0
  6  7  2  0  0  0
  7  8  1  0  0  0
  8  9  2  0  0  0
  9 10  1  0  0  0
 10 11  2  0  0  0
  9 28  1  0  0  0
 28 29  1  0  0  0
 28 30  2  0  0  0
 28 31  2  0  0  0
 18 19  2  0  0  0
 19 20  1  0  0  0
 20 21  2  0  0  0
 21 13  1  0  0  0
 20 16  1  0  0  0
 11  2  1  0  0  0
 11  6  1  0  0  0
 23 26  1  0  0  0
 23 27  1  0  0  0
 17 22  1  0  0  0
  5 12  1  0  0  0
 29 32  1  0  0  0
M  END
> <minimizedAffinity>
-9.12682

> <CNNscore>
0.5508264303

> <CNNaffinity>
6.1873288155

> <CNN_VS>
3.4081442356

> <CNNaffinity_variance>
0.3675989807

$$$$
[H]OS(=O)(=O)c1c([H])c([H])c2c(c1[H])/C(=C(\[H])c1c([H])c3c([H])c(C(=O)N([H])[H])c([H])c([H])c3n1[H])C(=O)N2[H]


 32 35  0  0  0  0  0  0  0  0999 V2000
   55.2402   -5.3738  -12.6550 C   0  0  0  0  0  0  0  0  0  0  0  0
   55.6962   -4.7106  -13.6943 C   0  0  0  0  0  0  0  0  0  0  0  0
   55.6985   -3.2861  -13.9613 C   0  0  0  0  0  0  0  0  0  0  0  0
   55.2199   -2.3802  -13.2304 O   0  0  0  0  0  0  0  0  0  0  0  0
   56.3504   -3.1177  -15.2236 N   0  0  0  0  0  0  0  0  0  0  0  0
   56.7486   -4.3602  -15.7493 C   0  0  0  0  0  0  0  0  0  0  0  0
   57.4006   -4.7620  -16.9090 C   0  0  0  0  0  0  0  0  0  0  0  0
   57.6471   -6.0951  -17.1316 C   0  0  0  0  0  0  0  0  0  0  0  0
   57.2776   -7.0854  -16.2518 C   0  0  0  0  0  0  0  0  0  0  0  0
   56.6333   -6.6862  -15.1064 C   0  0  0  0  0  0  0  0  0  0  0  0
   56.3764   -5.3381  -14.8667 C   0  0  0  0  0  0  0  0  0  0  0  0
   56.4955   -2.1936  -15.6664 H   0  0  0  0  0  0  0  0  0  0  0  0
   52.1340   -3.1578   -8.0880 C   0  0  0  0  0  0  0  0  0  0  0  0
   53.1260   -2.1866   -8.1252 C   0  0  0  0  0  0  0  0  0  0  0  0
   54.1485   -2.2327   -9.0436 C   0  0  0  0  0  0  0  0  0  0  0  0
   54.1394   -3.3082   -9.9393 C   0  0  0  0  0  0  0  0  0  0  0  0
   54.9993   -3.5883  -10.9139 N   0  0  0  0  0  0  0  0  0  0  0  0
   54.6281   -4.6995  -11.5295 C   0  0  0  0  0  0  0  0  0  0  0  0
   53.4792   -5.1423  -10.9128 C   0  0  0  0  0  0  0  0  0  0  0  0
   53.1706   -4.2658   -9.9105 C   0  0  0  0  0  0  0  0  0  0  0  0
   52.1311   -4.2125   -8.9715 C   0  0  0  0  0  0  0  0  0  0  0  0
   55.8754   -3.0146  -11.1621 H   0  0  0  0  0  0  0  0  0  0  0  0
   50.1251   -2.0058   -7.1822 N   0  0  0  0  0  0  0  0  0  0  0  0
   51.0634   -3.0504   -7.0770 C   0  0  0  0  0  0  0  0  0  0  0  0
   51.0386   -3.8986   -6.1664 O   0  0  0  0  0  0  0  0  0  0  0  0
   49.2518   -2.1521   -7.7192 H   0  0  0  0  0  0  0  0  0  0  0  0
   50.2886   -1.0913   -6.7335 H   0  0  0  0  0  0  0  0  0  0  0  0
   57.6173   -8.7794  -16.5845 S   0  0  0  0  0  0  0  0  0  0  0  0
   57.6082   -9.6987  -15.1918 O   0  0  0  0  0  0  0  0  0  0  0  0
   58.9796   -8.8337  -17.2471 O   0  0  0  0  0  0  0  0  0  0  0  0
   56.6341   -9.2915  -17.5899 O   0  0  0  0  0  0  0  0  0  0  0  0
   58.4680  -10.1555  -15.1184 H   0  0  0  0  0  0  0  0  0  0  0  0
 23 24  1  0  0  0
 24 25  2  0  0  0
 24 13  1  0  0  0
 13 14  2  0  0  0
 14 15  1  0  0  0
 15 16  2  0  0  0
 16 17  1  0  0  0
 17 18  1  0  0  0
 18  1  1  0  0  0
  1  2  2  0  0  0
  2  3  1  0  0  0
  3  4  2  0  0  0
  3  5  1  0  0  0
  5  6  1  0  0  0
  6  7  2  0  0  0
  7  8  1  0  0  0
  8  9  2  0  0  0
  9 10  1  0  0  0
 10 11  2  0  0  0
  9 28  1  0  0  0
 28 29  1  0  0  0
 28 30  2  0  0  0
 28 31  2  0  0  0
 18 19  2  0  0  0
 19 20  1  0  0  0
 20 21  2  0  0  0
 21 13  1  0  0  0
 20 16  1  0  0  0
 11  2  1  0  0  0
 11  6  1  0  0  0
 23 26  1  0  0  0
 23 27  1  0  0  0
 17 22  1  0  0  0
  5 12  1  0  0  0
 29 32  1  0  0  0
M  END
> <minimizedAffinity>
15.90570

> <CNNscore>
0.5433709621

> <CNNaffinity>
5.4415483475

> <CNN_VS>
2.9567794800

> <CNNaffinity_variance>
0.4887587428

$$$$
[H]OS(=O)(=O)c1c([H])c([H])c2c(c1[H])/C(=C(\[H])c1c([H])c3c([H])c(C(=O)N([H])[H])c([H])c([H])c3n1[H])C(=O)N2[H]


 32 35  0  0  0  0  0  0  0  0999 V2000
   56.4514   -5.3588   -7.9541 C   0  0  0  0  0  0  0  0  0  0  0  0
   55.6514   -4.4949   -8.5386 C   0  0  0  0  0  0  0  0  0  0  0  0
   55.8876   -3.6309   -9.6779 C   0  0  0  0  0  0  0  0  0  0  0  0
   56.9567   -3.5205  -10.3329 O   0  0  0  0  0  0  0  0  0  0  0  0
   54.6633   -2.9269   -9.9057 N   0  0  0  0  0  0  0  0  0  0  0  0
   53.6863   -3.3088   -8.9684 C   0  0  0  0  0  0  0  0  0  0  0  0
   52.3638   -2.9479   -8.7397 C   0  0  0  0  0  0  0  0  0  0  0  0
   51.6630   -3.5246   -7.7084 C   0  0  0  0  0  0  0  0  0  0  0  0
   52.2054   -4.4645   -6.8636 C   0  0  0  0  0  0  0  0  0  0  0  0
   53.5124   -4.8197   -7.0914 C   0  0  0  0  0  0  0  0  0  0  0  0
   54.2359   -4.2437   -8.1333 C   0  0  0  0  0  0  0  0  0  0  0  0
   54.5416   -2.2350  -10.6656 H   0  0  0  0  0  0  0  0  0  0  0  0
   61.6842   -6.2796  -10.6348 C   0  0  0  0  0  0  0  0  0  0  0  0
   62.1262   -6.3932   -9.3232 C   0  0  0  0  0  0  0  0  0  0  0  0
   61.2690   -6.2528   -8.2570 C   0  0  0  0  0  0  0  0  0  0  0  0
   59.9282   -5.9894   -8.5603 C   0  0  0  0  0  0  0  0  0  0  0  0
   58.9054   -5.8117   -7.7297 N   0  0  0  0  0  0  0  0  0  0  0  0
   57.8017   -5.5858   -8.4243 C   0  0  0  0  0  0  0  0  0  0  0  0
   58.1452   -5.6218   -9.7574 C   0  0  0  0  0  0  0  0  0  0  0  0
   59.4853   -5.8761   -9.8438 C   0  0  0  0  0  0  0  0  0  0  0  0
   60.3648   -6.0205  -10.9259 C   0  0  0  0  0  0  0  0  0  0  0  0
   58.9589   -5.8305   -6.6550 H   0  0  0  0  0  0  0  0  0  0  0  0
   63.9335   -6.9587  -11.4489 N   0  0  0  0  0  0  0  0  0  0  0  0
   62.6556   -6.4413  -11.7349 C   0  0  0  0  0  0  0  0  0  0  0  0
   62.2962   -6.1088  -12.8793 O   0  0  0  0  0  0  0  0  0  0  0  0
   64.0965   -7.9802  -11.4970 H   0  0  0  0  0  0  0  0  0  0  0  0
   64.7170   -6.3392  -11.1907 H   0  0  0  0  0  0  0  0  0  0  0  0
   51.2641   -5.1731   -5.5569 S   0  0  0  0  0  0  0  0  0  0  0  0
   50.1399   -4.0995   -4.9498 O   0  0  0  0  0  0  0  0  0  0  0  0
   52.2466   -5.5798   -4.4765 O   0  0  0  0  0  0  0  0  0  0  0  0
   50.6181   -6.4331   -6.0412 O   0  0  0  0  0  0  0  0  0  0  0  0
   50.2927   -4.0029   -3.9904 H   0  0  0  0  0  0  0  0  0  0  0  0
 23 24  1  0  0  0
 24 25  2  0  0  0
 24 13  1  0  0  0
 13 14  2  0  0  0
 14 15  1  0  0  0
 15 16  2  0  0  0
 16 17  1  0  0  0
 17 18  1  0  0  0
 18  1  1  0  0  0
  1  2  2  0  0  0
  2  3  1  0  0  0
  3  4  2  0  0  0
  3  5  1  0  0  0
  5  6  1  0  0  0
  6  7  2  0  0  0
  7  8  1  0  0  0
  8  9  2  0  0  0
  9 10  1  0  0  0
 10 11  2  0  0  0
  9 28  1  0  0  0
 28 29  1  0  0  0
 28 30  2  0  0  0
 28 31  2  0  0  0
 18 19  2  0  0  0
 19 20  1  0  0  0
 20 21  2  0  0  0
 21 13  1  0  0  0
 20 16  1  0  0  0
 11  2  1  0  0  0
 11  6  1  0  0  0
 23 26  1  0  0  0
 23 27  1  0  0  0
 17 22  1  0  0  0
  5 12  1  0  0  0
 29 32  1  0  0  0
M  END
> <minimizedAffinity>
-7.33149

> <CNNscore>
0.5056491494

> <CNNaffinity>
5.9574556351

> <CNN_VS>
3.0123822689

> <CNNaffinity_variance>
0.2745285928

$$$$
[H]c1c([H])c([H])c2c(c1[H])c1c3c(c4c5c([H])c([H])c([H])c([H])c5n5c4c1n2[C@@]1([H])O[C@]5(C([H])([H])[H])[C@@]([H])(OC([H])([H])[H])[C@@]([H])(N([H])C([H])([H])[H])C1([H])[H])C([H])([H])N([H])C3=O


 37 44  0  0  0  0  0  0  0  0999 V2000
   55.4484   -8.0923   -4.1373 C   0  0  0  0  0  0  0  0  0  0  0  0
   56.4111   -7.3298   -4.9504 C   0  0  0  0  0  0  0  0  0  0  0  0
   56.3728   -5.8488   -4.7603 C   0  0  0  0  0  0  0  0  0  0  0  0
   55.7213   -5.3444   -3.7473 O   0  0  0  0  0  0  0  0  0  0  0  0
   54.5856   -5.8944   -3.1990 C   0  0  0  0  0  0  0  0  0  0  0  0
   54.5704   -5.2077   -1.8176 C   0  0  0  0  0  0  0  0  0  0  0  0
   54.7850   -7.3297   -3.0124 C   0  0  0  0  0  0  0  0  0  0  0  0
   53.4429   -5.4773   -3.9943 N   0  0  0  0  0  0  0  0  0  0  0  0
   52.1652   -5.3578   -3.6196 C   0  0  0  0  0  0  0  0  0  0  0  0
   51.5301   -5.6077   -2.4400 C   0  0  0  0  0  0  0  0  0  0  0  0
   50.1650   -5.3954   -2.3186 C   0  0  0  0  0  0  0  0  0  0  0  0
   49.3912   -4.9321   -3.3546 C   0  0  0  0  0  0  0  0  0  0  0  0
   50.0289   -4.6722   -4.5692 C   0  0  0  0  0  0  0  0  0  0  0  0
   51.3836   -4.8921   -4.6597 C   0  0  0  0  0  0  0  0  0  0  0  0
   52.2353   -4.7176   -5.7358 C   0  0  0  0  0  0  0  0  0  0  0  0
   52.0482   -4.2725   -7.0371 C   0  0  0  0  0  0  0  0  0  0  0  0
   50.7871   -3.8344   -7.7089 C   0  0  0  0  0  0  0  0  0  0  0  0
   51.1706   -3.4607   -9.0399 N   0  0  0  0  0  0  0  0  0  0  0  0
   52.5698   -3.6715   -9.2109 C   0  0  0  0  0  0  0  0  0  0  0  0
   53.1319   -3.4343  -10.2829 O   0  0  0  0  0  0  0  0  0  0  0  0
   53.0795   -4.1744   -7.9482 C   0  0  0  0  0  0  0  0  0  0  0  0
   54.3267   -4.5493   -7.4938 C   0  0  0  0  0  0  0  0  0  0  0  0
   55.5737   -4.6080   -8.0790 C   0  0  0  0  0  0  0  0  0  0  0  0
   56.0535   -4.3073   -9.3220 C   0  0  0  0  0  0  0  0  0  0  0  0
   57.4119   -4.4901   -9.5784 C   0  0  0  0  0  0  0  0  0  0  0  0
   58.2924   -4.9621   -8.6296 C   0  0  0  0  0  0  0  0  0  0  0  0
   57.8057   -5.2654   -7.3750 C   0  0  0  0  0  0  0  0  0  0  0  0
   56.4826   -5.0876   -7.1245 C   0  0  0  0  0  0  0  0  0  0  0  0
   55.7941   -5.3074   -6.0026 N   0  0  0  0  0  0  0  0  0  0  0  0
   54.5102   -4.9931   -6.1962 C   0  0  0  0  0  0  0  0  0  0  0  0
   53.4576   -5.0776   -5.3050 C   0  0  0  0  0  0  0  0  0  0  0  0
   50.5009   -3.0857   -9.7744 H   0  0  0  0  0  0  0  0  0  0  0  0
   54.6254   -8.2679   -6.3192 C   0  0  0  0  0  0  0  0  0  0  0  0
   54.3954   -8.7051   -4.9578 N   0  0  0  0  0  0  0  0  0  0  0  0
   54.4272   -9.7286   -4.9505 H   0  0  0  0  0  0  0  0  0  0  0  0
   53.6840   -8.1037   -2.6805 O   0  0  0  0  0  0  0  0  0  0  0  0
   53.5301   -8.3755   -1.3500 C   0  0  0  0  0  0  0  0  0  0  0  0
 33 34  1  0  0  0
 34  1  1  0  0  0
  1  2  1  0  0  0
  2  3  1  0  0  0
  3  4  1  0  0  0
  4  5  1  0  0  0
  5  6  1  0  0  0
  5  7  1  0  0  0
  7 36  1  0  0  0
 36 37  1  0  0  0
  5  8  1  0  0  0
  8  9  1  0  0  0
  9 10  2  0  0  0
 10 11  1  0  0  0
 11 12  2  0  0  0
 12 13  1  0  0  0
 13 14  2  0  0  0
 14 15  1  0  0  0
 15 16  2  0  0  0
 16 17  1  0  0  0
 17 18  1  0  0  0
 18 19  1  0  0  0
 19 20  2  0  0  0
 19 21  1  0  0  0
 21 22  2  0  0  0
 22 23  1  0  0  0
 23 24  2  0  0  0
 24 25  1  0  0  0
 25 26  2  0  0  0
 26 27  1  0  0  0
 27 28  2  0  0  0
 28 29  1  0  0  0
 29 30  1  0  0  0
 30 31  2  0  0  0
  7  1  1  0  0  0
 31  8  1  0  0  0
 29  3  1  0  0  0
 14  9  1  0  0  0
 31 15  1  0  0  0
 21 16  1  0  0  0
 30 22  1  0  0  0
 28 23  1  0  0  0
 34 35  1  0  0  0
 18 32  1  0  0  0
M  END
> <minimizedAffinity>
-6.22539

> <CNNscore>
0.4324832857

> <CNNaffinity>
6.9022660255

> <CNN_VS>
2.9851145744

> <CNNaffinity_variance>
0.3426883221

$$$$
[H]c1c([H])c([H])c2c(c1[H])c1c3c(c4c5c([H])c([H])c([H])c([H])c5n5c4c1n2[C@@]1([H])O[C@]5(C([H])([H])[H])[C@@]([H])(OC([H])([H])[H])[C@@]([H])(N([H])C([H])([H])[H])C1([H])[H])C([H])([H])N([H])C3=O


 37 44  0  0  0  0  0  0  0  0999 V2000
   59.0711   -3.2636  -15.2084 C   0  0  0  0  0  0  0  0  0  0  0  0
   58.5129   -3.1805  -13.8480 C   0  0  0  0  0  0  0  0  0  0  0  0
   59.4901   -2.8128  -12.7800 C   0  0  0  0  0  0  0  0  0  0  0  0
   60.6623   -2.3424  -13.1115 O   0  0  0  0  0  0  0  0  0  0  0  0
   61.3541   -2.7013  -14.2453 C   0  0  0  0  0  0  0  0  0  0  0  0
   62.3481   -1.5271  -14.3606 C   0  0  0  0  0  0  0  0  0  0  0  0
   60.4503   -2.6713  -15.3929 C   0  0  0  0  0  0  0  0  0  0  0  0
   62.0557   -3.9463  -13.9809 N   0  0  0  0  0  0  0  0  0  0  0  0
   63.1666   -4.4161  -14.5574 C   0  0  0  0  0  0  0  0  0  0  0  0
   63.9537   -3.9308  -15.5586 C   0  0  0  0  0  0  0  0  0  0  0  0
   65.0733   -4.6349  -15.9756 C   0  0  0  0  0  0  0  0  0  0  0  0
   65.4461   -5.8336  -15.4182 C   0  0  0  0  0  0  0  0  0  0  0  0
   64.6485   -6.3428  -14.3916 C   0  0  0  0  0  0  0  0  0  0  0  0
   63.5445   -5.6223  -13.9991 C   0  0  0  0  0  0  0  0  0  0  0  0
   62.6067   -5.9076  -13.0228 C   0  0  0  0  0  0  0  0  0  0  0  0
   62.4519   -6.9568  -12.1275 C   0  0  0  0  0  0  0  0  0  0  0  0
   63.2996   -8.1749  -11.9505 C   0  0  0  0  0  0  0  0  0  0  0  0
   62.6958   -8.9106  -10.8770 N   0  0  0  0  0  0  0  0  0  0  0  0
   61.5327   -8.2239  -10.4221 C   0  0  0  0  0  0  0  0  0  0  0  0
   60.8337   -8.6724   -9.5102 O   0  0  0  0  0  0  0  0  0  0  0  0
   61.4143   -7.0172  -11.2203 C   0  0  0  0  0  0  0  0  0  0  0  0
   60.5222   -5.9656  -11.2498 C   0  0  0  0  0  0  0  0  0  0  0  0
   59.3799   -5.6677  -10.5374 C   0  0  0  0  0  0  0  0  0  0  0  0
   58.7035   -6.2885   -9.5261 C   0  0  0  0  0  0  0  0  0  0  0  0
   57.5492   -5.6882   -9.0245 C   0  0  0  0  0  0  0  0  0  0  0  0
   57.0609   -4.4933   -9.5063 C   0  0  0  0  0  0  0  0  0  0  0  0
   57.7455   -3.8682  -10.5278 C   0  0  0  0  0  0  0  0  0  0  0  0
   58.8700   -4.4523  -11.0170 C   0  0  0  0  0  0  0  0  0  0  0  0
   59.6874   -4.0394  -11.9877 N   0  0  0  0  0  0  0  0  0  0  0  0
   60.6787   -4.9213  -12.1437 C   0  0  0  0  0  0  0  0  0  0  0  0
   61.7307   -4.8871  -13.0389 C   0  0  0  0  0  0  0  0  0  0  0  0
   63.0712   -9.8267  -10.4918 H   0  0  0  0  0  0  0  0  0  0  0  0
   58.0261   -4.7456  -16.6851 C   0  0  0  0  0  0  0  0  0  0  0  0
   59.0945   -4.6430  -15.7128 N   0  0  0  0  0  0  0  0  0  0  0  0
   59.9703   -4.8807  -16.1871 H   0  0  0  0  0  0  0  0  0  0  0  0
   60.8956   -3.2136  -16.5884 O   0  0  0  0  0  0  0  0  0  0  0  0
   60.0663   -4.1326  -17.1676 C   0  0  0  0  0  0  0  0  0  0  0  0
 33 34  1  0  0  0
 34  1  1  0  0  0
  1  2  1  0  0  0
  2  3  1  0  0  0
  3  4  1  0  0  0
  4  5  1  0  0  0
  5  6  1  0  0  0
  5  7  1  0  0  0
  7 36  1  0  0  0
 36 37  1  0  0  0
  5  8  1  0  0  0
  8  9  1  0  0  0
  9 10  2  0  0  0
 10 11  1  0  0  0
 11 12  2  0  0  0
 12 13  1  0  0  0
 13 14  2  0  0  0
 14 15  1  0  0  0
 15 16  2  0  0  0
 16 17  1  0  0  0
 17 18  1  0  0  0
 18 19  1  0  0  0
 19 20  2  0  0  0
 19 21  1  0  0  0
 21 22  2  0  0  0
 22 23  1  0  0  0
 23 24  2  0  0  0
 24 25  1  0  0  0
 25 26  2  0  0  0
 26 27  1  0  0  0
 27 28  2  0  0  0
 28 29  1  0  0  0
 29 30  1  0  0  0
 30 31  2  0  0  0
  7  1  1  0  0  0
 31  8  1  0  0  0
 29  3  1  0  0  0
 14  9  1  0  0  0
 31 15  1  0  0  0
 21 16  1  0  0  0
 30 22  1  0  0  0
 28 23  1  0  0  0
 34 35  1  0  0  0
 18 32  1  0  0  0
M  END
> <minimizedAffinity>
4.87122

> <CNNscore>
0.4159048796

> <CNNaffinity>
5.0103044510

> <CNN_VS>
2.0838100910

> <CNNaffinity_variance>
0.2926441133

$$$$
[H]c1c([H])c([H])c2c(c1[H])c1c3c(c4c5c([H])c([H])c([H])c([H])c5n5c4c1n2[C@@]1([H])O[C@]5(C([H])([H])[H])[C@@]([H])(OC([H])([H])[H])[C@@]([H])(N([H])C([H])([H])[H])C1([H])[H])C([H])([H])N([H])C3=O


 37 44  0  0  0  0  0  0  0  0999 V2000
   54.9108   -5.7017   -2.8189 C   0  0  0  0  0  0  0  0  0  0  0  0
   53.4530   -5.8765   -2.7020 C   0  0  0  0  0  0  0  0  0  0  0  0
   52.8096   -6.6261   -3.8223 C   0  0  0  0  0  0  0  0  0  0  0  0
   53.5531   -7.2902   -4.6658 O   0  0  0  0  0  0  0  0  0  0  0  0
   54.8213   -6.9179   -5.0478 C   0  0  0  0  0  0  0  0  0  0  0  0
   55.3580   -8.2524   -5.6057 C   0  0  0  0  0  0  0  0  0  0  0  0
   55.5958   -6.5538   -3.8636 C   0  0  0  0  0  0  0  0  0  0  0  0
   54.7105   -5.9254   -6.1038 N   0  0  0  0  0  0  0  0  0  0  0  0
   55.5883   -5.6330   -7.0687 C   0  0  0  0  0  0  0  0  0  0  0  0
   56.8314   -6.1145   -7.3518 C   0  0  0  0  0  0  0  0  0  0  0  0
   57.5439   -5.6250   -8.4363 C   0  0  0  0  0  0  0  0  0  0  0  0
   57.0511   -4.6500   -9.2688 C   0  0  0  0  0  0  0  0  0  0  0  0
   55.7786   -4.1474   -8.9902 C   0  0  0  0  0  0  0  0  0  0  0  0
   55.0958   -4.6520   -7.9081 C   0  0  0  0  0  0  0  0  0  0  0  0
   53.8411   -4.3242   -7.4261 C   0  0  0  0  0  0  0  0  0  0  0  0
   52.8655   -3.4278   -7.8396 C   0  0  0  0  0  0  0  0  0  0  0  0
   52.8881   -2.4801   -8.9950 C   0  0  0  0  0  0  0  0  0  0  0  0
   51.6189   -1.8116   -8.9686 N   0  0  0  0  0  0  0  0  0  0  0  0
   50.8550   -2.2806   -7.8606 C   0  0  0  0  0  0  0  0  0  0  0  0
   49.7281   -1.8400   -7.6208 O   0  0  0  0  0  0  0  0  0  0  0  0
   51.6600   -3.2819   -7.1848 C   0  0  0  0  0  0  0  0  0  0  0  0
   51.4708   -4.0837   -6.0786 C   0  0  0  0  0  0  0  0  0  0  0  0
   50.4413   -4.2263   -5.1725 C   0  0  0  0  0  0  0  0  0  0  0  0
   49.2151   -3.6415   -5.0300 C   0  0  0  0  0  0  0  0  0  0  0  0
   48.4034   -4.0371   -3.9675 C   0  0  0  0  0  0  0  0  0  0  0  0
   48.7860   -4.9946   -3.0536 C   0  0  0  0  0  0  0  0  0  0  0  0
   50.0249   -5.5837   -3.1994 C   0  0  0  0  0  0  0  0  0  0  0  0
   50.8162   -5.1988   -4.2341 C   0  0  0  0  0  0  0  0  0  0  0  0
   52.0351   -5.6227   -4.5737 N   0  0  0  0  0  0  0  0  0  0  0  0
   52.4453   -4.9760   -5.6684 C   0  0  0  0  0  0  0  0  0  0  0  0
   53.6424   -5.1020   -6.3470 C   0  0  0  0  0  0  0  0  0  0  0  0
   51.3111   -1.0804   -9.6750 H   0  0  0  0  0  0  0  0  0  0  0  0
   56.4249   -4.0266   -2.2100 C   0  0  0  0  0  0  0  0  0  0  0  0
   55.2819   -4.3005   -3.0563 N   0  0  0  0  0  0  0  0  0  0  0  0
   55.5616   -4.1193   -4.0245 H   0  0  0  0  0  0  0  0  0  0  0  0
   56.8242   -5.9395   -4.0509 O   0  0  0  0  0  0  0  0  0  0  0  0
   57.9200   -6.7202   -3.8112 C   0  0  0  0  0  0  0  0  0  0  0  0
 33 34  1  0  0  0
 34  1  1  0  0  0
  1  2  1  0  0  0
  2  3  1  0  0  0
  3  4  1  0  0  0
  4  5  1  0  0  0
  5  6  1  0  0  0
  5  7  1  0  0  0
  7 36  1  0  0  0
 36 37  1  0  0  0
  5  8  1  0  0  0
  8  9  1  0  0  0
  9 10  2  0  0  0
 10 11  1  0  0  0
 11 12  2  0  0  0
 12 13  1  0  0  0
 13 14  2  0  0  0
 14 15  1  0  0  0
 15 16  2  0  0  0
 16 17  1  0  0  0
 17 18  1  0  0  0
 18 19  1  0  0  0
 19 20  2  0  0  0
 19 21  1  0  0  0
 21 22  2  0  0  0
 22 23  1  0  0  0
 23 24  2  0  0  0
 24 25  1  0  0  0
 25 26  2  0  0  0
 26 27  1  0  0  0
 27 28  2  0  0  0
 28 29  1  0  0  0
 29 30  1  0  0  0
 30 31  2  0  0  0
  7  1  1  0  0  0
 31  8  1  0  0  0
 29  3  1  0  0  0
 14  9  1  0  0  0
 31 15  1  0  0  0
 21 16  1  0  0  0
 30 22  1  0  0  0
 28 23  1  0  0  0
 34 35  1  0  0  0
 18 32  1  0  0  0
M  END
> <minimizedAffinity>
-8.13500

> <CNNscore>
0.3980872929

> <CNNaffinity>
7.0082359314

> <CNN_VS>
2.7898895741

> <CNNaffinity_variance>
0.1615880132

$$$$
[H]c1c([H])c([H])c2c(c1[H])c1c3c(c4c5c([H])c([H])c([H])c([H])c5n5c4c1n2[C@@]1([H])O[C@]5(C([H])([H])[H])[C@@]([H])(OC([H])([H])[H])[C@@]([H])(N([H])C([H])([H])[H])C1([H])[H])C([H])([H])N([H])C3=O


 37 44  0  0  0  0  0  0  0  0999 V2000
   60.6014   -1.9259  -14.5115 C   0  0  0  0  0  0  0  0  0  0  0  0
   61.4130   -2.7160  -15.4530 C   0  0  0  0  0  0  0  0  0  0  0  0
   61.0233   -4.1522  -15.5800 C   0  0  0  0  0  0  0  0  0  0  0  0
   59.8820   -4.5572  -15.0915 O   0  0  0  0  0  0  0  0  0  0  0  0
   59.2820   -4.0291  -13.9716 C   0  0  0  0  0  0  0  0  0  0  0  0
   57.8290   -4.5085  -14.1695 C   0  0  0  0  0  0  0  0  0  0  0  0
   59.3141   -2.5704  -14.0483 C   0  0  0  0  0  0  0  0  0  0  0  0
   59.8737   -4.6487  -12.7976 N   0  0  0  0  0  0  0  0  0  0  0  0
   59.3381   -4.8175  -11.5845 C   0  0  0  0  0  0  0  0  0  0  0  0
   58.1358   -4.4532  -11.0561 C   0  0  0  0  0  0  0  0  0  0  0  0
   57.8267   -4.7572   -9.7387 C   0  0  0  0  0  0  0  0  0  0  0  0
   58.6926   -5.4268   -8.9089 C   0  0  0  0  0  0  0  0  0  0  0  0
   59.9282   -5.8057   -9.4372 C   0  0  0  0  0  0  0  0  0  0  0  0
   60.2067   -5.4907  -10.7468 C   0  0  0  0  0  0  0  0  0  0  0  0
   61.3428   -5.7479  -11.4932 C   0  0  0  0  0  0  0  0  0  0  0  0
   62.5415   -6.3897  -11.2142 C   0  0  0  0  0  0  0  0  0  0  0  0
   62.9949   -7.0220   -9.9382 C   0  0  0  0  0  0  0  0  0  0  0  0
   64.2998   -7.5508  -10.2138 N   0  0  0  0  0  0  0  0  0  0  0  0
   64.6615   -7.2527  -11.5598 C   0  0  0  0  0  0  0  0  0  0  0  0
   65.7509   -7.5948  -12.0262 O   0  0  0  0  0  0  0  0  0  0  0  0
   63.5466   -6.5330  -12.1483 C   0  0  0  0  0  0  0  0  0  0  0  0
   63.2970   -5.9954  -13.3938 C   0  0  0  0  0  0  0  0  0  0  0  0
   64.0281   -5.9194  -14.5603 C   0  0  0  0  0  0  0  0  0  0  0  0
   65.2675   -6.3557  -14.9334 C   0  0  0  0  0  0  0  0  0  0  0  0
   65.7047   -6.1008  -16.2327 C   0  0  0  0  0  0  0  0  0  0  0  0
   64.9384   -5.4264  -17.1581 C   0  0  0  0  0  0  0  0  0  0  0  0
   63.6870   -4.9866  -16.7791 C   0  0  0  0  0  0  0  0  0  0  0  0
   63.2604   -5.2344  -15.5136 C   0  0  0  0  0  0  0  0  0  0  0  0
   62.1047   -4.9126  -14.9292 N   0  0  0  0  0  0  0  0  0  0  0  0
   62.1015   -5.3558  -13.6689 C   0  0  0  0  0  0  0  0  0  0  0  0
   61.1116   -5.2306  -12.7130 C   0  0  0  0  0  0  0  0  0  0  0  0
   64.8931   -8.0813   -9.5103 H   0  0  0  0  0  0  0  0  0  0  0  0
   60.4545   -1.6008  -12.2003 C   0  0  0  0  0  0  0  0  0  0  0  0
   61.3664   -1.5262  -13.3230 N   0  0  0  0  0  0  0  0  0  0  0  0
   62.1540   -2.1502  -13.1257 H   0  0  0  0  0  0  0  0  0  0  0  0
   58.9611   -1.8497  -12.9180 O   0  0  0  0  0  0  0  0  0  0  0  0
   57.7980   -2.2321  -12.3107 C   0  0  0  0  0  0  0  0  0  0  0  0
 33 34  1  0  0  0
 34  1  1  0  0  0
  1  2  1  0  0  0
  2  3  1  0  0  0
  3  4  1  0  0  0
  4  5  1  0  0  0
  5  6  1  0  0  0
  5  7  1  0  0  0
  7 36  1  0  0  0
 36 37  1  0  0  0
  5  8  1  0  0  0
  8  9  1  0  0  0
  9 10  2  0  0  0
 10 11  1  0  0  0
 11 12  2  0  0  0
 12 13  1  0  0  0
 13 14  2  0  0  0
 14 15  1  0  0  0
 15 16  2  0  0  0
 16 17  1  0  0  0
 17 18  1  0  0  0
 18 19  1  0  0  0
 19 20  2  0  0  0
 19 21  1  0  0  0
 21 22  2  0  0  0
 22 23  1  0  0  0
 23 24  2  0  0  0
 24 25  1  0  0  0
 25 26  2  0  0  0
 26 27  1  0  0  0
 27 28  2  0  0  0
 28 29  1  0  0  0
 29 30  1  0  0  0
 30 31  2  0  0  0
  7  1  1  0  0  0
 31  8  1  0  0  0
 29  3  1  0  0  0
 14  9  1  0  0  0
 31 15  1  0  0  0
 21 16  1  0  0  0
 30 22  1  0  0  0
 28 23  1  0  0  0
 34 35  1  0  0  0
 18 32  1  0  0  0
M  END
> <minimizedAffinity>
13.16238

> <CNNscore>
0.3019848466

> <CNNaffinity>
4.6616044044

> <CNN_VS>
1.4077339172

> <CNNaffinity_variance>
0.4619131982

$$$$
[H]c1c([H])c([H])c2c(c1[H])c1c3c(c4c5c([H])c([H])c([H])c([H])c5n5c4c1n2[C@@]1([H])O[C@]5(C([H])([H])[H])[C@@]([H])(OC([H])([H])[H])[C@@]([H])(N([H])C([H])([H])[H])C1([H])[H])C([H])([H])N([H])C3=O


 37 44  0  0  0  0  0  0  0  0999 V2000
   51.9934   -2.3422   -8.6602 C   0  0  0  0  0  0  0  0  0  0  0  0
   52.7679   -2.8126   -9.8213 C   0  0  0  0  0  0  0  0  0  0  0  0
   52.8829   -4.2961   -9.9514 C   0  0  0  0  0  0  0  0  0  0  0  0
   52.1131   -5.0689   -9.2336 O   0  0  0  0  0  0  0  0  0  0  0  0
   51.6653   -4.7650   -7.9687 C   0  0  0  0  0  0  0  0  0  0  0  0
   50.4689   -5.7313   -7.8462 C   0  0  0  0  0  0  0  0  0  0  0  0
   51.1685   -3.3911   -7.9486 C   0  0  0  0  0  0  0  0  0  0  0  0
   52.7072   -5.1117   -7.0166 N   0  0  0  0  0  0  0  0  0  0  0  0
   52.5829   -5.4349   -5.7254 C   0  0  0  0  0  0  0  0  0  0  0  0
   51.5006   -5.5091   -4.9006 C   0  0  0  0  0  0  0  0  0  0  0  0
   51.6540   -5.8765   -3.5720 C   0  0  0  0  0  0  0  0  0  0  0  0
   52.8757   -6.1798   -3.0224 C   0  0  0  0  0  0  0  0  0  0  0  0
   53.9933   -6.1074   -3.8561 C   0  0  0  0  0  0  0  0  0  0  0  0
   53.8104   -5.7403   -5.1690 C   0  0  0  0  0  0  0  0  0  0  0  0
   54.7416   -5.5938   -6.1816 C   0  0  0  0  0  0  0  0  0  0  0  0
   56.1177   -5.7642   -6.2430 C   0  0  0  0  0  0  0  0  0  0  0  0
   57.0643   -6.1696   -5.1599 C   0  0  0  0  0  0  0  0  0  0  0  0
   58.3594   -6.2079   -5.7760 N   0  0  0  0  0  0  0  0  0  0  0  0
   58.2485   -5.8279   -7.1452 C   0  0  0  0  0  0  0  0  0  0  0  0
   59.2366   -5.7717   -7.8814 O   0  0  0  0  0  0  0  0  0  0  0  0
   56.8442   -5.5611   -7.3981 C   0  0  0  0  0  0  0  0  0  0  0  0
   56.1224   -5.1716   -8.5070 C   0  0  0  0  0  0  0  0  0  0  0  0
   56.4671   -4.8651   -9.8063 C   0  0  0  0  0  0  0  0  0  0  0  0
   57.6468   -4.8419  -10.4946 C   0  0  0  0  0  0  0  0  0  0  0  0
   57.6307   -4.4747  -11.8397 C   0  0  0  0  0  0  0  0  0  0  0  0
   56.4736   -4.1337  -12.5054 C   0  0  0  0  0  0  0  0  0  0  0  0
   55.2835   -4.1576  -11.8082 C   0  0  0  0  0  0  0  0  0  0  0  0
   55.2983   -4.5151  -10.4979 C   0  0  0  0  0  0  0  0  0  0  0  0
   54.2867   -4.6115   -9.6330 N   0  0  0  0  0  0  0  0  0  0  0  0
   54.7508   -5.0020   -8.4427 C   0  0  0  0  0  0  0  0  0  0  0  0
   54.0497   -5.2161   -7.2714 C   0  0  0  0  0  0  0  0  0  0  0  0
   59.2550   -6.4800   -5.2737 H   0  0  0  0  0  0  0  0  0  0  0  0
   54.1369   -1.4861   -8.2840 C   0  0  0  0  0  0  0  0  0  0  0  0
   52.8415   -1.6741   -7.6642 N   0  0  0  0  0  0  0  0  0  0  0  0
   52.4896   -0.7514   -7.3934 H   0  0  0  0  0  0  0  0  0  0  0  0
   50.8797   -2.8196   -6.7192 O   0  0  0  0  0  0  0  0  0  0  0  0
   49.5520   -2.6573   -6.4384 C   0  0  0  0  0  0  0  0  0  0  0  0
 33 34  1  0  0  0
 34  1  1  0  0  0
  1  2  1  0  0  0
  2  3  1  0  0  0
  3  4  1  0  0  0
  4  5  1  0  0  0
  5  6  1  0  0  0
  5  7  1  0  0  0
  7 36  1  0  0  0
 36 37  1  0  0  0
  5  8  1  0  0  0
  8  9  1  0  0  0
  9 10  2  0  0  0
 10 11  1  0  0  0
 11 12  2  0  0  0
 12 13  1  0  0  0
 13 14  2  0  0  0
 14 15  1  0  0  0
 15 16  2  0  0  0
 16 17  1  0  0  0
 17 18  1  0  0  0
 18 19  1  0  0  0
 19 20  2  0  0  0
 19 21  1  0  0  0
 21 22  2  0  0  0
 22 23  1  0  0  0
 23 24  2  0  0  0
 24 25  1  0  0  0
 25 26  2  0  0  0
 26 27  1  0  0  0
 27 28  2  0  0  0
 28 29  1  0  0  0
 29 30  1  0  0  0
 30 31  2  0  0  0
  7  1  1  0  0  0
 31  8  1  0  0  0
 29  3  1  0  0  0
 14  9  1  0  0  0
 31 15  1  0  0  0
 21 16  1  0  0  0
 30 22  1  0  0  0
 28 23  1  0  0  0
 34 35  1  0  0  0
 18 32  1  0  0  0
M  END
> <minimizedAffinity>
0.12607

> <CNNscore>
0.3007326424

> <CNNaffinity>
6.8448729515

> <CNN_VS>
2.0584766865

> <CNNaffinity_variance>
0.2382255346

$$$$
[H]c1c([H])c([H])c2c(c1[H])c1c3c(c4c5c([H])c([H])c([H])c([H])c5n5c4c1n2[C@@]1([H])O[C@]5(C([H])([H])[H])[C@@]([H])(OC([H])([H])[H])[C@@]([H])(N([H])C([H])([H])[H])C1([H])[H])C([H])([H])N([H])C3=O


 37 44  0  0  0  0  0  0  0  0999 V2000
   55.4366   -5.2688   -1.8038 C   0  0  0  0  0  0  0  0  0  0  0  0
   54.1940   -5.2798   -2.5945 C   0  0  0  0  0  0  0  0  0  0  0  0
   54.0173   -6.4648   -3.4865 C   0  0  0  0  0  0  0  0  0  0  0  0
   54.7882   -7.5078   -3.3349 O   0  0  0  0  0  0  0  0  0  0  0  0
   56.0980   -7.4550   -2.9168 C   0  0  0  0  0  0  0  0  0  0  0  0
   56.3137   -8.9123   -2.4587 C   0  0  0  0  0  0  0  0  0  0  0  0
   56.1999   -6.5735   -1.7562 C   0  0  0  0  0  0  0  0  0  0  0  0
   56.9346   -7.1465   -4.0645 N   0  0  0  0  0  0  0  0  0  0  0  0
   58.2236   -7.4421   -4.2603 C   0  0  0  0  0  0  0  0  0  0  0  0
   59.1485   -8.0663   -3.4779 C   0  0  0  0  0  0  0  0  0  0  0  0
   60.4463   -8.2465   -3.9326 C   0  0  0  0  0  0  0  0  0  0  0  0
   60.8659   -7.8171   -5.1679 C   0  0  0  0  0  0  0  0  0  0  0  0
   59.9287   -7.1756   -5.9799 C   0  0  0  0  0  0  0  0  0  0  0  0
   58.6493   -7.0112   -5.5023 C   0  0  0  0  0  0  0  0  0  0  0  0
   57.5542   -6.4149   -6.1015 C   0  0  0  0  0  0  0  0  0  0  0  0
   57.3540   -5.8104   -7.3347 C   0  0  0  0  0  0  0  0  0  0  0  0
   58.3290   -5.5987   -8.4475 C   0  0  0  0  0  0  0  0  0  0  0  0
   57.5882   -4.9459   -9.4885 N   0  0  0  0  0  0  0  0  0  0  0  0
   56.2461   -4.7334   -9.0584 C   0  0  0  0  0  0  0  0  0  0  0  0
   55.4181   -4.1727   -9.7806 O   0  0  0  0  0  0  0  0  0  0  0  0
   56.1386   -5.2830   -7.7191 C   0  0  0  0  0  0  0  0  0  0  0  0
   55.1156   -5.3864   -6.7998 C   0  0  0  0  0  0  0  0  0  0  0  0
   53.7965   -4.9850   -6.7960 C   0  0  0  0  0  0  0  0  0  0  0  0
   52.9967   -4.3461   -7.7003 C   0  0  0  0  0  0  0  0  0  0  0  0
   51.6689   -4.0918   -7.3585 C   0  0  0  0  0  0  0  0  0  0  0  0
   51.1283   -4.4583   -6.1454 C   0  0  0  0  0  0  0  0  0  0  0  0
   51.9380   -5.1032   -5.2335 C   0  0  0  0  0  0  0  0  0  0  0  0
   53.2315   -5.3513   -5.5657 C   0  0  0  0  0  0  0  0  0  0  0  0
   54.1889   -5.9541   -4.8580 N   0  0  0  0  0  0  0  0  0  0  0  0
   55.3181   -5.9891   -5.5710 C   0  0  0  0  0  0  0  0  0  0  0  0
   56.5470   -6.5114   -5.2154 C   0  0  0  0  0  0  0  0  0  0  0  0
   57.9935   -4.6696  -10.4307 H   0  0  0  0  0  0  0  0  0  0  0  0
   55.9058   -3.7814   -3.5463 C   0  0  0  0  0  0  0  0  0  0  0  0
   56.3605   -4.2140   -2.2411 N   0  0  0  0  0  0  0  0  0  0  0  0
   56.3559   -3.3970   -1.6238 H   0  0  0  0  0  0  0  0  0  0  0  0
   57.4652   -6.2109   -1.3213 O   0  0  0  0  0  0  0  0  0  0  0  0
   57.7652   -6.5413   -0.0295 C   0  0  0  0  0  0  0  0  0  0  0  0
 33 34  1  0  0  0
 34  1  1  0  0  0
  1  2  1  0  0  0
  2  3  1  0  0  0
  3  4  1  0  0  0
  4  5  1  0  0  0
  5  6  1  0  0  0
  5  7  1  0  0  0
  7 36  1  0  0  0
 36 37  1  0  0  0
  5  8  1  0  0  0
  8  9  1  0  0  0
  9 10  2  0  0  0
 10 11  1  0  0  0
 11 12  2  0  0  0
 12 13  1  0  0  0
 13 14  2  0  0  0
 14 15  1  0  0  0
 15 16  2  0  0  0
 16 17  1  0  0  0
 17 18  1  0  0  0
 18 19  1  0  0  0
 19 20  2  0  0  0
 19 21  1  0  0  0
 21 22  2  0  0  0
 22 23  1  0  0  0
 23 24  2  0  0  0
 24 25  1  0  0  0
 25 26  2  0  0  0
 26 27  1  0  0  0
 27 28  2  0  0  0
 28 29  1  0  0  0
 29 30  1  0  0  0
 30 31  2  0  0  0
  7  1  1  0  0  0
 31  8  1  0  0  0
 29  3  1  0  0  0
 14  9  1  0  0  0
 31 15  1  0  0  0
 21 16  1  0  0  0
 30 22  1  0  0  0
 28 23  1  0  0  0
 34 35  1  0  0  0
 18 32  1  0  0  0
M  END
> <minimizedAffinity>
-3.35757

> <CNNscore>
0.2815191746

> <CNNaffinity>
6.3502979279

> <CNN_VS>
1.7877305746

> <CNNaffinity_variance>
0.3266600072

$$$$
[H]c1c([H])c([H])c2c(c1[H])c1c3c(c4c5c([H])c([H])c([H])c([H])c5n5c4c1n2[C@@]1([H])O[C@]5(C([H])([H])[H])[C@@]([H])(OC([H])([H])[H])[C@@]([H])(N([H])C([H])([H])[H])C1([H])[H])C([H])([H])N([H])C3=O


 37 44  0  0  0  0  0  0  0  0999 V2000
   59.5801   -2.5101  -17.3965 C   0  0  0  0  0  0  0  0  0  0  0  0
   60.6001   -3.5446  -17.6389 C   0  0  0  0  0  0  0  0  0  0  0  0
   60.2162   -4.9270  -17.2236 C   0  0  0  0  0  0  0  0  0  0  0  0
   58.9706   -5.1921  -16.9350 O   0  0  0  0  0  0  0  0  0  0  0  0
   58.0941   -4.2959  -16.3679 C   0  0  0  0  0  0  0  0  0  0  0  0
   56.7428   -4.9521  -16.7192 C   0  0  0  0  0  0  0  0  0  0  0  0
   58.1940   -3.0153  -17.0640 C   0  0  0  0  0  0  0  0  0  0  0  0
   58.3067   -4.2922  -14.9301 N   0  0  0  0  0  0  0  0  0  0  0  0
   57.4427   -3.9759  -13.9603 C   0  0  0  0  0  0  0  0  0  0  0  0
   56.1523   -3.5387  -13.9909 C   0  0  0  0  0  0  0  0  0  0  0  0
   55.4713   -3.2772  -12.8113 C   0  0  0  0  0  0  0  0  0  0  0  0
   56.0429   -3.4393  -11.5730 C   0  0  0  0  0  0  0  0  0  0  0  0
   57.3648   -3.8864  -11.5269 C   0  0  0  0  0  0  0  0  0  0  0  0
   58.0147   -4.1375  -12.7128 C   0  0  0  0  0  0  0  0  0  0  0  0
   59.3073   -4.5784  -12.9339 C   0  0  0  0  0  0  0  0  0  0  0  0
   60.3555   -4.9191  -12.0903 C   0  0  0  0  0  0  0  0  0  0  0  0
   60.4061   -4.8965  -10.5968 C   0  0  0  0  0  0  0  0  0  0  0  0
   61.7176   -5.3632  -10.2496 N   0  0  0  0  0  0  0  0  0  0  0  0
   62.4570   -5.6371  -11.4369 C   0  0  0  0  0  0  0  0  0  0  0  0
   63.6224   -6.0387  -11.3932 O   0  0  0  0  0  0  0  0  0  0  0  0
   61.5797   -5.3507  -12.5575 C   0  0  0  0  0  0  0  0  0  0  0  0
   61.7126   -5.4257  -13.9283 C   0  0  0  0  0  0  0  0  0  0  0  0
   62.7475   -5.7865  -14.7649 C   0  0  0  0  0  0  0  0  0  0  0  0
   64.0270   -6.2181  -14.5595 C   0  0  0  0  0  0  0  0  0  0  0  0
   64.8240   -6.5036  -15.6675 C   0  0  0  0  0  0  0  0  0  0  0  0
   64.3751   -6.3685  -16.9631 C   0  0  0  0  0  0  0  0  0  0  0  0
   63.0826   -5.9322  -17.1682 C   0  0  0  0  0  0  0  0  0  0  0  0
   62.3056   -5.6540  -16.0894 C   0  0  0  0  0  0  0  0  0  0  0  0
   61.0424   -5.2264  -16.0408 N   0  0  0  0  0  0  0  0  0  0  0  0
   60.6661   -5.0849  -14.7668 C   0  0  0  0  0  0  0  0  0  0  0  0
   59.4497   -4.6586  -14.2689 C   0  0  0  0  0  0  0  0  0  0  0  0
   62.0686   -5.4809   -9.2539 H   0  0  0  0  0  0  0  0  0  0  0  0
   61.4211   -1.4035  -16.4717 C   0  0  0  0  0  0  0  0  0  0  0  0
   59.9877   -1.5676  -16.3462 N   0  0  0  0  0  0  0  0  0  0  0  0
   59.5588   -0.6435  -16.4495 H   0  0  0  0  0  0  0  0  0  0  0  0
   57.5574   -1.9177  -16.5057 O   0  0  0  0  0  0  0  0  0  0  0  0
   56.9156   -1.0933  -17.3868 C   0  0  0  0  0  0  0  0  0  0  0  0
 33 34  1  0  0  0
 34  1  1  0  0  0
  1  2  1  0  0  0
  2  3  1  0  0  0
  3  4  1  0  0  0
  4  5  1  0  0  0
  5  6  1  0  0  0
  5  7  1  0  0  0
  7 36  1  0  0  0
 36 37  1  0  0  0
  5  8  1  0  0  0
  8  9  1  0  0  0
  9 10  2  0  0  0
 10 11  1  0  0  0
 11 12  2  0  0  0
 12 13  1  0  0  0
 13 14  2  0  0  0
 14 15  1  0  0  0
 15 16  2  0  0  0
 16 17  1  0  0  0
 17 18  1  0  0  0
 18 19  1  0  0  0
 19 20  2  0  0  0
 19 21  1  0  0  0
 21 22  2  0  0  0
 22 23  1  0  0  0
 23 24  2  0  0  0
 24 25  1  0  0  0
 25 26  2  0  0  0
 26 27  1  0  0  0
 27 28  2  0  0  0
 28 29  1  0  0  0
 29 30  1  0  0  0
 30 31  2  0  0  0
  7  1  1  0  0  0
 31  8  1  0  0  0
 29  3  1  0  0  0
 14  9  1  0  0  0
 31 15  1  0  0  0
 21 16  1  0  0  0
 30 22  1  0  0  0
 28 23  1  0  0  0
 34 35  1  0  0  0
 18 32  1  0  0  0
M  END
> <minimizedAffinity>
18.80940

> <CNNscore>
0.2731660604

> <CNNaffinity>
4.8439145088

> <CNN_VS>
1.3231930733

> <CNNaffinity_variance>
0.2964988649

$$$$
[H]c1c([H])c([H])c2c(c1[H])c1c3c(c4c5c([H])c([H])c([H])c([H])c5n5c4c1n2[C@@]1([H])O[C@]5(C([H])([H])[H])[C@@]([H])(OC([H])([H])[H])[C@@]([H])(N([H])C([H])([H])[H])C1([H])[H])C([H])([H])N([H])C3=O


 37 44  0  0  0  0  0  0  0  0999 V2000
   52.1900   -3.2904   -8.6246 C   0  0  0  0  0  0  0  0  0  0  0  0
   53.3975   -3.9702   -9.1237 C   0  0  0  0  0  0  0  0  0  0  0  0
   53.5198   -5.4100   -8.7458 C   0  0  0  0  0  0  0  0  0  0  0  0
   52.4864   -6.0385   -8.2535 O   0  0  0  0  0  0  0  0  0  0  0  0
   51.5173   -5.4525   -7.4722 C   0  0  0  0  0  0  0  0  0  0  0  0
   50.3724   -6.4766   -7.6161 C   0  0  0  0  0  0  0  0  0  0  0  0
   51.1033   -4.1905   -8.0808 C   0  0  0  0  0  0  0  0  0  0  0  0
   51.9979   -5.4063   -6.1013 N   0  0  0  0  0  0  0  0  0  0  0  0
   51.2875   -5.3758   -4.9693 C   0  0  0  0  0  0  0  0  0  0  0  0
   49.9461   -5.3428   -4.7312 C   0  0  0  0  0  0  0  0  0  0  0  0
   49.4641   -5.3132   -3.4310 C   0  0  0  0  0  0  0  0  0  0  0  0
   50.2899   -5.3153   -2.3334 C   0  0  0  0  0  0  0  0  0  0  0  0
   51.6667   -5.3486   -2.5628 C   0  0  0  0  0  0  0  0  0  0  0  0
   52.1152   -5.3775   -3.8628 C   0  0  0  0  0  0  0  0  0  0  0  0
   53.4103   -5.4099   -4.3483 C   0  0  0  0  0  0  0  0  0  0  0  0
   54.6567   -5.4348   -3.7380 C   0  0  0  0  0  0  0  0  0  0  0  0
   54.9910   -5.4195   -2.2814 C   0  0  0  0  0  0  0  0  0  0  0  0
   56.4229   -5.4790   -2.2152 N   0  0  0  0  0  0  0  0  0  0  0  0
   56.9616   -5.5030   -3.5345 C   0  0  0  0  0  0  0  0  0  0  0  0
   58.1782   -5.5396   -3.7344 O   0  0  0  0  0  0  0  0  0  0  0  0
   55.8367   -5.4751   -4.4516 C   0  0  0  0  0  0  0  0  0  0  0  0
   55.7135   -5.4873   -5.8254 C   0  0  0  0  0  0  0  0  0  0  0  0
   56.6230   -5.5112   -6.8613 C   0  0  0  0  0  0  0  0  0  0  0  0
   57.9870   -5.5447   -6.9256 C   0  0  0  0  0  0  0  0  0  0  0  0
   58.5986   -5.5637   -8.1787 C   0  0  0  0  0  0  0  0  0  0  0  0
   57.8844   -5.5500   -9.3568 C   0  0  0  0  0  0  0  0  0  0  0  0
   56.5069   -5.5159   -9.2894 C   0  0  0  0  0  0  0  0  0  0  0  0
   55.9105   -5.4974   -8.0693 C   0  0  0  0  0  0  0  0  0  0  0  0
   54.6129   -5.4665   -7.7592 N   0  0  0  0  0  0  0  0  0  0  0  0
   54.4698   -5.4619   -6.4310 C   0  0  0  0  0  0  0  0  0  0  0  0
   53.3047   -5.4248   -5.6890 C   0  0  0  0  0  0  0  0  0  0  0  0
   56.9814   -5.5010   -1.3118 H   0  0  0  0  0  0  0  0  0  0  0  0
   53.6440   -1.5372   -8.0940 C   0  0  0  0  0  0  0  0  0  0  0  0
   52.5053   -2.2844   -7.6016 N   0  0  0  0  0  0  0  0  0  0  0  0
   51.7418   -1.6203   -7.4450 H   0  0  0  0  0  0  0  0  0  0  0  0
   50.2988   -3.3407   -7.3376 O   0  0  0  0  0  0  0  0  0  0  0  0
   49.0416   -3.1323   -7.8315 C   0  0  0  0  0  0  0  0  0  0  0  0
 33 34  1  0  0  0
 34  1  1  0  0  0
  1  2  1  0  0  0
  2  3  1  0  0  0
  3  4  1  0  0  0
  4  5  1  0  0  0
  5  6  1  0  0  0
  5  7  1  0  0  0
  7 36  1  0  0  0
 36 37  1  0  0  0
  5  8  1  0  0  0
  8  9  1  0  0  0
  9 10  2  0  0  0
 10 11  1  0  0  0
 11 12  2  0  0  0
 12 13  1  0  0  0
 13 14  2  0  0  0
 14 15  1  0  0  0
 15 16  2  0  0  0
 16 17  1  0  0  0
 17 18  1  0  0  0
 18 19  1  0  0  0
 19 20  2  0  0  0
 19 21  1  0  0  0
 21 22  2  0  0  0
 22 23  1  0  0  0
 23 24  2  0  0  0
 24 25  1  0  0  0
 25 26  2  0  0  0
 26 27  1  0  0  0
 27 28  2  0  0  0
 28 29  1  0  0  0
 29 30  1  0  0  0
 30 31  2  0  0  0
  7  1  1  0  0  0
 31  8  1  0  0  0
 29  3  1  0  0  0
 14  9  1  0  0  0
 31 15  1  0  0  0
 21 16  1  0  0  0
 30 22  1  0  0  0
 28 23  1  0  0  0
 34 35  1  0  0  0
 18 32  1  0  0  0
M  END
> <minimizedAffinity>
-0.93812

> <CNNscore>
0.2604617774

> <CNNaffinity>
6.8171157837

> <CNN_VS>
1.7755980492

> <CNNaffinity_variance>
0.4120121002

$$$$
[H]c1c([H])c([H])c2c(c1[H])c1c3c(c4c5c([H])c([H])c([H])c([H])c5n5c4c1n2[C@@]1([H])O[C@]5(C([H])([H])[H])[C@@]([H])(OC([H])([H])[H])[C@@]([H])(N([H])C([H])([H])[H])C1([H])[H])C([H])([H])N([H])C3=O


 37 44  0  0  0  0  0  0  0  0999 V2000
   54.3681   -6.9362   -7.1974 C   0  0  0  0  0  0  0  0  0  0  0  0
   54.0560   -5.6029   -7.7401 C   0  0  0  0  0  0  0  0  0  0  0  0
   54.1490   -4.4791   -6.7607 C   0  0  0  0  0  0  0  0  0  0  0  0
   54.7310   -4.6734   -5.6081 O   0  0  0  0  0  0  0  0  0  0  0  0
   54.7203   -5.8651   -4.9205 C   0  0  0  0  0  0  0  0  0  0  0  0
   55.9134   -5.6576   -3.9648 C   0  0  0  0  0  0  0  0  0  0  0  0
   55.0338   -6.9566   -5.8397 C   0  0  0  0  0  0  0  0  0  0  0  0
   53.4746   -5.9557   -4.1773 N   0  0  0  0  0  0  0  0  0  0  0  0
   53.2183   -6.6437   -3.0601 C   0  0  0  0  0  0  0  0  0  0  0  0
   53.9856   -7.4763   -2.3016 C   0  0  0  0  0  0  0  0  0  0  0  0
   53.4605   -8.0754   -1.1663 C   0  0  0  0  0  0  0  0  0  0  0  0
   52.1680   -7.8702   -0.7494 C   0  0  0  0  0  0  0  0  0  0  0  0
   51.3705   -7.0196   -1.5174 C   0  0  0  0  0  0  0  0  0  0  0  0
   51.9184   -6.4398   -2.6379 C   0  0  0  0  0  0  0  0  0  0  0  0
   51.3451   -5.5754   -3.5535 C   0  0  0  0  0  0  0  0  0  0  0  0
   50.0859   -5.0021   -3.6640 C   0  0  0  0  0  0  0  0  0  0  0  0
   48.8950   -5.1701   -2.7768 C   0  0  0  0  0  0  0  0  0  0  0  0
   47.8733   -4.3374   -3.3435 N   0  0  0  0  0  0  0  0  0  0  0  0
   48.3697   -3.7066   -4.5212 C   0  0  0  0  0  0  0  0  0  0  0  0
   47.6652   -2.9500   -5.1940 O   0  0  0  0  0  0  0  0  0  0  0  0
   49.7445   -4.1421   -4.6873 C   0  0  0  0  0  0  0  0  0  0  0  0
   50.7335   -3.8780   -5.6118 C   0  0  0  0  0  0  0  0  0  0  0  0
   50.7863   -3.1064   -6.7533 C   0  0  0  0  0  0  0  0  0  0  0  0
   49.8897   -2.3017   -7.3968 C   0  0  0  0  0  0  0  0  0  0  0  0
   50.2905   -1.6497   -8.5624 C   0  0  0  0  0  0  0  0  0  0  0  0
   51.5548   -1.7828   -9.0936 C   0  0  0  0  0  0  0  0  0  0  0  0
   52.4586   -2.5962   -8.4421 C   0  0  0  0  0  0  0  0  0  0  0  0
   52.0689   -3.2317   -7.3067 C   0  0  0  0  0  0  0  0  0  0  0  0
   52.7593   -4.0550   -6.5152 N   0  0  0  0  0  0  0  0  0  0  0  0
   51.9876   -4.4513   -5.4993 C   0  0  0  0  0  0  0  0  0  0  0  0
   52.3011   -5.3071   -4.4607 C   0  0  0  0  0  0  0  0  0  0  0  0
   46.8997   -4.2202   -2.9350 H   0  0  0  0  0  0  0  0  0  0  0  0
   52.1335   -7.1131   -7.8640 C   0  0  0  0  0  0  0  0  0  0  0  0
   53.1816   -7.8001   -7.1381 N   0  0  0  0  0  0  0  0  0  0  0  0
   53.3259   -8.7092   -7.5867 H   0  0  0  0  0  0  0  0  0  0  0  0
   54.8555   -8.2569   -5.3936 O   0  0  0  0  0  0  0  0  0  0  0  0
   55.6491   -8.6389   -4.3485 C   0  0  0  0  0  0  0  0  0  0  0  0
 33 34  1  0  0  0
 34  1  1  0  0  0
  1  2  1  0  0  0
  2  3  1  0  0  0
  3  4  1  0  0  0
  4  5  1  0  0  0
  5  6  1  0  0  0
  5  7  1  0  0  0
  7 36  1  0  0  0
 36 37  1  0  0  0
  5  8  1  0  0  0
  8  9  1  0  0  0
  9 10  2  0  0  0
 10 11  1  0  0  0
 11 12  2  0  0  0
 12 13  1  0  0  0
 13 14  2  0  0  0
 14 15  1  0  0  0
 15 16  2  0  0  0
 16 17  1  0  0  0
 17 18  1  0  0  0
 18 19  1  0  0  0
 19 20  2  0  0  0
 19 21  1  0  0  0
 21 22  2  0  0  0
 22 23  1  0  0  0
 23 24  2  0  0  0
 24 25  1  0  0  0
 25 26  2  0  0  0
 26 27  1  0  0  0
 27 28  2  0  0  0
 28 29  1  0  0  0
 29 30  1  0  0  0
 30 31  2  0  0  0
  7  1  1  0  0  0
 31  8  1  0  0  0
 29  3  1  0  0  0
 14  9  1  0  0  0
 31 15  1  0  0  0
 21 16  1  0  0  0
 30 22  1  0  0  0
 28 23  1  0  0  0
 34 35  1  0  0  0
 18 32  1  0  0  0
M  END
> <minimizedAffinity>
-1.09604

> <CNNscore>
0.2413456589

> <CNNaffinity>
6.4789018631

> <CNN_VS>
1.5636547804

> <CNNaffinity_variance>
0.1915530264

$$$$
[H]c1nc(N([H])c2c([H])c([H])c(N3C([H])([H])C([H])([H])C([H])(N(C([H])([H])[H])C([H])([H])[H])C([H])([H])C3([H])[H])c([H])c2OC([H])([H])[H])nc(N([H])c2c([H])c([H])c([H])c([H])c2S(=O)(=O)C([H])(C([H])([H])[H])C([H])([H])[H])c1Cl


 40 43  0  0  0  0  0  0  0  0999 V2000
   53.5275   -3.3599   -9.1667 C   0  0  0  0  0  0  0  0  0  0  0  0
   52.5428   -2.4679   -9.1746 N   0  0  0  0  0  0  0  0  0  0  0  0
   51.5409   -2.4736   -8.2865 C   0  0  0  0  0  0  0  0  0  0  0  0
   51.4836   -3.4237   -7.3035 C   0  0  0  0  0  0  0  0  0  0  0  0
   50.2039   -3.4728   -6.1123 Cl  0  0  0  0  0  0  0  0  0  0  0  0
   52.5050   -4.3998   -7.2458 C   0  0  0  0  0  0  0  0  0  0  0  0
   53.4325   -4.2895   -8.1709 N   0  0  0  0  0  0  0  0  0  0  0  0
   54.6262   -3.4309  -10.0652 N   0  0  0  0  0  0  0  0  0  0  0  0
   54.4909   -2.9563  -11.0288 H   0  0  0  0  0  0  0  0  0  0  0  0
   56.6602   -4.2929  -11.0057 C   0  0  0  0  0  0  0  0  0  0  0  0
   57.8704   -4.8856  -10.8203 C   0  0  0  0  0  0  0  0  0  0  0  0
   58.3566   -5.2458   -9.5915 C   0  0  0  0  0  0  0  0  0  0  0  0
   57.5660   -4.9865   -8.5018 C   0  0  0  0  0  0  0  0  0  0  0  0
   56.3207   -4.3836   -8.6273 C   0  0  0  0  0  0  0  0  0  0  0  0
   55.8565   -4.0327   -9.8675 C   0  0  0  0  0  0  0  0  0  0  0  0
   59.6374   -5.8711   -9.3994 N   0  0  0  0  0  0  0  0  0  0  0  0
   60.4506   -6.0095  -10.5827 C   0  0  0  0  0  0  0  0  0  0  0  0
   61.8395   -6.4845  -10.3589 C   0  0  0  0  0  0  0  0  0  0  0  0
   62.2804   -6.3590   -8.9333 C   0  0  0  0  0  0  0  0  0  0  0  0
   61.2896   -7.1017   -8.0609 C   0  0  0  0  0  0  0  0  0  0  0  0
   60.0115   -6.3029   -8.0927 C   0  0  0  0  0  0  0  0  0  0  0  0
   63.6326   -6.8341   -8.7684 N   0  0  0  0  0  0  0  0  0  0  0  0
   64.5172   -5.8285   -8.2612 C   0  0  0  0  0  0  0  0  0  0  0  0
   63.7063   -8.0754   -8.0339 C   0  0  0  0  0  0  0  0  0  0  0  0
   57.0555   -3.8245  -13.3362 C   0  0  0  0  0  0  0  0  0  0  0  0
   56.1810   -3.9343  -12.2505 O   0  0  0  0  0  0  0  0  0  0  0  0
   52.4382   -5.4113   -6.2627 N   0  0  0  0  0  0  0  0  0  0  0  0
   51.4806   -5.6224   -5.9146 H   0  0  0  0  0  0  0  0  0  0  0  0
   53.5186   -6.1007   -5.7194 C   0  0  0  0  0  0  0  0  0  0  0  0
   54.6845   -6.3879   -6.4298 C   0  0  0  0  0  0  0  0  0  0  0  0
   55.7888   -6.9686   -5.8243 C   0  0  0  0  0  0  0  0  0  0  0  0
   55.7749   -7.2835   -4.4945 C   0  0  0  0  0  0  0  0  0  0  0  0
   54.6314   -7.0030   -3.7977 C   0  0  0  0  0  0  0  0  0  0  0  0
   53.4885   -6.4197   -4.3610 C   0  0  0  0  0  0  0  0  0  0  0  0
   52.1072   -6.2529   -3.3640 S   0  0  0  0  0  0  0  0  0  0  0  0
   52.0200   -4.7700   -2.9338 O   0  0  0  0  0  0  0  0  0  0  0  0
   50.7878   -6.4694   -4.0640 O   0  0  0  0  0  0  0  0  0  0  0  0
   52.1399   -7.1491   -1.8458 C   0  0  0  0  0  0  0  0  0  0  0  0
   52.8476   -6.3372   -0.7565 C   0  0  0  0  0  0  0  0  0  0  0  0
   50.8312   -7.5506   -1.3042 C   0  0  0  0  0  0  0  0  0  0  0  0
 25 26  1  0  0  0
 26 10  1  0  0  0
 10 11  2  0  0  0
 11 12  1  0  0  0
 12 13  2  0  0  0
 13 14  1  0  0  0
 14 15  2  0  0  0
 15  8  1  0  0  0
  8  1  1  0  0  0
  1  2  2  0  0  0
  2  3  1  0  0  0
  3  4  2  0  0  0
  4  5  1  0  0  0
  4  6  1  0  0  0
  6 27  1  0  0  0
 27 29  1  0  0  0
 29 30  2  0  0  0
 30 31  1  0  0  0
 31 32  2  0  0  0
 32 33  1  0  0  0
 33 34  2  0  0  0
 34 35  1  0  0  0
 35 36  2  0  0  0
 35 37  2  0  0  0
 35 38  1  0  0  0
 38 39  1  0  0  0
 38 40  1  0  0  0
  6  7  2  0  0  0
 12 16  1  0  0  0
 16 17  1  0  0  0
 17 18  1  0  0  0
 18 19  1  0  0  0
 19 20  1  0  0  0
 20 21  1  0  0  0
 19 22  1  0  0  0
 22 23  1  0  0  0
 22 24  1  0  0  0
 15 10  1  0  0  0
  7  1  1  0  0  0
 21 16  1  0  0  0
 34 29  1  0  0  0
  8  9  1  0  0  0
 27 28  1  0  0  0
M  END
> <minimizedAffinity>
-8.65952

> <CNNscore>
0.8946923614

> <CNNaffinity>
8.2961330414

> <CNN_VS>
7.4224867821

> <CNNaffinity_variance>
0.0118835894

$$$$
[H]c1nc(N([H])c2c([H])c([H])c(N3C([H])([H])C([H])([H])C([H])(N(C([H])([H])[H])C([H])([H])[H])C([H])([H])C3([H])[H])c([H])c2OC([H])([H])[H])nc(N([H])c2c([H])c([H])c([H])c([H])c2S(=O)(=O)C([H])(C([H])([H])[H])C([H])([H])[H])c1Cl


 40 43  0  0  0  0  0  0  0  0999 V2000
   53.7899   -3.4998   -9.3696 C   0  0  0  0  0  0  0  0  0  0  0  0
   52.9515   -2.4717   -9.2970 N   0  0  0  0  0  0  0  0  0  0  0  0
   51.9297   -2.4181   -8.4335 C   0  0  0  0  0  0  0  0  0  0  0  0
   51.6958   -3.4474   -7.5627 C   0  0  0  0  0  0  0  0  0  0  0  0
   50.3824   -3.4262   -6.4079 Cl  0  0  0  0  0  0  0  0  0  0  0  0
   52.5561   -4.5691   -7.5945 C   0  0  0  0  0  0  0  0  0  0  0  0
   53.5214   -4.5046   -8.4846 N   0  0  0  0  0  0  0  0  0  0  0  0
   54.8962   -3.6424  -10.2501 N   0  0  0  0  0  0  0  0  0  0  0  0
   54.7685   -3.2487  -11.2505 H   0  0  0  0  0  0  0  0  0  0  0  0
   56.9537   -4.5433  -11.0986 C   0  0  0  0  0  0  0  0  0  0  0  0
   58.1629   -5.1167  -10.8552 C   0  0  0  0  0  0  0  0  0  0  0  0
   58.6257   -5.4030   -9.5983 C   0  0  0  0  0  0  0  0  0  0  0  0
   57.8115   -5.0873   -8.5414 C   0  0  0  0  0  0  0  0  0  0  0  0
   56.5658   -4.5006   -8.7263 C   0  0  0  0  0  0  0  0  0  0  0  0
   56.1254   -4.2240   -9.9936 C   0  0  0  0  0  0  0  0  0  0  0  0
   59.9056   -6.0081   -9.3450 N   0  0  0  0  0  0  0  0  0  0  0  0
   60.7717   -6.1443  -10.4904 C   0  0  0  0  0  0  0  0  0  0  0  0
   62.1561   -6.5972  -10.2021 C   0  0  0  0  0  0  0  0  0  0  0  0
   62.5324   -6.4536   -8.7597 C   0  0  0  0  0  0  0  0  0  0  0  0
   61.5149   -7.2035   -7.9248 C   0  0  0  0  0  0  0  0  0  0  0  0
   60.2283   -6.4236   -8.0195 C   0  0  0  0  0  0  0  0  0  0  0  0
   63.8827   -6.9075   -8.5318 N   0  0  0  0  0  0  0  0  0  0  0  0
   64.7974   -6.4591   -9.5383 C   0  0  0  0  0  0  0  0  0  0  0  0
   64.3448   -6.6440   -7.1891 C   0  0  0  0  0  0  0  0  0  0  0  0
   57.3783   -3.7665  -13.3399 C   0  0  0  0  0  0  0  0  0  0  0  0
   56.4982   -4.2594  -12.3713 O   0  0  0  0  0  0  0  0  0  0  0  0
   52.3036   -5.6573   -6.7306 N   0  0  0  0  0  0  0  0  0  0  0  0
   52.2448   -6.5847   -7.1988 H   0  0  0  0  0  0  0  0  0  0  0  0
   52.1025   -5.5841   -5.3551 C   0  0  0  0  0  0  0  0  0  0  0  0
   50.8457   -5.4365   -4.7676 C   0  0  0  0  0  0  0  0  0  0  0  0
   50.6672   -5.4887   -3.3933 C   0  0  0  0  0  0  0  0  0  0  0  0
   51.7279   -5.6898   -2.5553 C   0  0  0  0  0  0  0  0  0  0  0  0
   52.9606   -5.8336   -3.1311 C   0  0  0  0  0  0  0  0  0  0  0  0
   53.1959   -5.7870   -4.5118 C   0  0  0  0  0  0  0  0  0  0  0  0
   54.8204   -5.8657   -5.0448 S   0  0  0  0  0  0  0  0  0  0  0  0
   54.8947   -6.9409   -6.1540 O   0  0  0  0  0  0  0  0  0  0  0  0
   55.3181   -4.6293   -5.7528 O   0  0  0  0  0  0  0  0  0  0  0  0
   56.0006   -6.3910   -3.8447 C   0  0  0  0  0  0  0  0  0  0  0  0
   57.2275   -7.0031   -4.5280 C   0  0  0  0  0  0  0  0  0  0  0  0
   56.4917   -5.3527   -2.9238 C   0  0  0  0  0  0  0  0  0  0  0  0
 25 26  1  0  0  0
 26 10  1  0  0  0
 10 11  2  0  0  0
 11 12  1  0  0  0
 12 13  2  0  0  0
 13 14  1  0  0  0
 14 15  2  0  0  0
 15  8  1  0  0  0
  8  1  1  0  0  0
  1  2  2  0  0  0
  2  3  1  0  0  0
  3  4  2  0  0  0
  4  5  1  0  0  0
  4  6  1  0  0  0
  6 27  1  0  0  0
 27 29  1  0  0  0
 29 30  2  0  0  0
 30 31  1  0  0  0
 31 32  2  0  0  0
 32 33  1  0  0  0
 33 34  2  0  0  0
 34 35  1  0  0  0
 35 36  2  0  0  0
 35 37  2  0  0  0
 35 38  1  0  0  0
 38 39  1  0  0  0
 38 40  1  0  0  0
  6  7  2  0  0  0
 12 16  1  0  0  0
 16 17  1  0  0  0
 17 18  1  0  0  0
 18 19  1  0  0  0
 19 20  1  0  0  0
 20 21  1  0  0  0
 19 22  1  0  0  0
 22 23  1  0  0  0
 22 24  1  0  0  0
 15 10  1  0  0  0
  7  1  1  0  0  0
 21 16  1  0  0  0
 34 29  1  0  0  0
  8  9  1  0  0  0
 27 28  1  0  0  0
M  END
> <minimizedAffinity>
-9.26654

> <CNNscore>
0.8867760897

> <CNNaffinity>
8.1455869675

> <CNN_VS>
7.2233119011

> <CNNaffinity_variance>
0.0495907925

$$$$
[H]c1nc(N([H])c2c([H])c([H])c(N3C([H])([H])C([H])([H])C([H])(N(C([H])([H])[H])C([H])([H])[H])C([H])([H])C3([H])[H])c([H])c2OC([H])([H])[H])nc(N([H])c2c([H])c([H])c([H])c([H])c2S(=O)(=O)C([H])(C([H])([H])[H])C([H])([H])[H])c1Cl


 40 43  0  0  0  0  0  0  0  0999 V2000
   53.4186   -3.4435   -8.9477 C   0  0  0  0  0  0  0  0  0  0  0  0
   52.3957   -2.6034   -8.8322 N   0  0  0  0  0  0  0  0  0  0  0  0
   51.4245   -2.7509   -7.9226 C   0  0  0  0  0  0  0  0  0  0  0  0
   51.4412   -3.8019   -7.0465 C   0  0  0  0  0  0  0  0  0  0  0  0
   50.2044   -4.0379   -5.8326 Cl  0  0  0  0  0  0  0  0  0  0  0  0
   52.5060   -4.7290   -7.1224 C   0  0  0  0  0  0  0  0  0  0  0  0
   53.3972   -4.4772   -8.0556 N   0  0  0  0  0  0  0  0  0  0  0  0
   54.4896   -3.3664   -9.8785 N   0  0  0  0  0  0  0  0  0  0  0  0
   54.3215   -2.7540  -10.7554 H   0  0  0  0  0  0  0  0  0  0  0  0
   56.3855   -4.0112   -8.5540 C   0  0  0  0  0  0  0  0  0  0  0  0
   57.6053   -4.6084   -8.4782 C   0  0  0  0  0  0  0  0  0  0  0  0
   58.2362   -5.1802   -9.5511 C   0  0  0  0  0  0  0  0  0  0  0  0
   57.5870   -5.1382  -10.7579 C   0  0  0  0  0  0  0  0  0  0  0  0
   56.3398   -4.5424  -10.8983 C   0  0  0  0  0  0  0  0  0  0  0  0
   55.7294   -3.9772   -9.8100 C   0  0  0  0  0  0  0  0  0  0  0  0
   59.5254   -5.8119   -9.4666 N   0  0  0  0  0  0  0  0  0  0  0  0
   59.9408   -6.2135   -8.1450 C   0  0  0  0  0  0  0  0  0  0  0  0
   61.1818   -7.0260   -8.0779 C   0  0  0  0  0  0  0  0  0  0  0  0
   61.5667   -7.6201   -9.3976 C   0  0  0  0  0  0  0  0  0  0  0  0
   61.6885   -6.4981  -10.4079 C   0  0  0  0  0  0  0  0  0  0  0  0
   60.2894   -5.9952  -10.6569 C   0  0  0  0  0  0  0  0  0  0  0  0
   62.7767   -8.3968   -9.2798 N   0  0  0  0  0  0  0  0  0  0  0  0
   62.6144   -9.5576   -8.4569 C   0  0  0  0  0  0  0  0  0  0  0  0
   63.3832   -8.6891  -10.5575 C   0  0  0  0  0  0  0  0  0  0  0  0
   56.3997   -3.4063   -6.2214 C   0  0  0  0  0  0  0  0  0  0  0  0
   55.7595   -3.4379   -7.4643 O   0  0  0  0  0  0  0  0  0  0  0  0
   52.5160   -5.8414   -6.2526 N   0  0  0  0  0  0  0  0  0  0  0  0
   51.5844   -6.2713   -6.0793 H   0  0  0  0  0  0  0  0  0  0  0  0
   53.6308   -6.3688   -5.6069 C   0  0  0  0  0  0  0  0  0  0  0  0
   54.8498   -6.6035   -6.2436 C   0  0  0  0  0  0  0  0  0  0  0  0
   55.9752   -7.0151   -5.5456 C   0  0  0  0  0  0  0  0  0  0  0  0
   55.9306   -7.2071   -4.1932 C   0  0  0  0  0  0  0  0  0  0  0  0
   54.7350   -6.9780   -3.5686 C   0  0  0  0  0  0  0  0  0  0  0  0
   53.5690   -6.5637   -4.2263 C   0  0  0  0  0  0  0  0  0  0  0  0
   52.1341   -6.4434   -3.3010 S   0  0  0  0  0  0  0  0  0  0  0  0
   52.0493   -4.9972   -2.7597 O   0  0  0  0  0  0  0  0  0  0  0  0
   50.8550   -6.5731   -4.0913 O   0  0  0  0  0  0  0  0  0  0  0  0
   52.0593   -7.4565   -1.8598 C   0  0  0  0  0  0  0  0  0  0  0  0
   50.7205   -7.2696   -1.1392 C   0  0  0  0  0  0  0  0  0  0  0  0
   52.2357   -8.9020   -2.0762 C   0  0  0  0  0  0  0  0  0  0  0  0
 25 26  1  0  0  0
 26 10  1  0  0  0
 10 11  2  0  0  0
 11 12  1  0  0  0
 12 13  2  0  0  0
 13 14  1  0  0  0
 14 15  2  0  0  0
 15  8  1  0  0  0
  8  1  1  0  0  0
  1  2  2  0  0  0
  2  3  1  0  0  0
  3  4  2  0  0  0
  4  5  1  0  0  0
  4  6  1  0  0  0
  6 27  1  0  0  0
 27 29  1  0  0  0
 29 30  2  0  0  0
 30 31  1  0  0  0
 31 32  2  0  0  0
 32 33  1  0  0  0
 33 34  2  0  0  0
 34 35  1  0  0  0
 35 36  2  0  0  0
 35 37  2  0  0  0
 35 38  1  0  0  0
 38 39  1  0  0  0
 38 40  1  0  0  0
  6  7  2  0  0  0
 12 16  1  0  0  0
 16 17  1  0  0  0
 17 18  1  0  0  0
 18 19  1  0  0  0
 19 20  1  0  0  0
 20 21  1  0  0  0
 19 22  1  0  0  0
 22 23  1  0  0  0
 22 24  1  0  0  0
 15 10  1  0  0  0
  7  1  1  0  0  0
 21 16  1  0  0  0
 34 29  1  0  0  0
  8  9  1  0  0  0
 27 28  1  0  0  0
M  END
> <minimizedAffinity>
-7.69394

> <CNNscore>
0.7968368530

> <CNNaffinity>
8.1032066345

> <CNN_VS>
6.4569334984

> <CNNaffinity_variance>
0.0582233667

$$$$
[H]c1nc(N([H])c2c([H])c([H])c(N3C([H])([H])C([H])([H])C([H])(N(C([H])([H])[H])C([H])([H])[H])C([H])([H])C3([H])[H])c([H])c2OC([H])([H])[H])nc(N([H])c2c([H])c([H])c([H])c([H])c2S(=O)(=O)C([H])(C([H])([H])[H])C([H])([H])[H])c1Cl


 40 43  0  0  0  0  0  0  0  0999 V2000
   53.6871   -3.5936   -8.4929 C   0  0  0  0  0  0  0  0  0  0  0  0
   52.4775   -3.1025   -8.7404 N   0  0  0  0  0  0  0  0  0  0  0  0
   51.3716   -3.5276   -8.1169 C   0  0  0  0  0  0  0  0  0  0  0  0
   51.4381   -4.5138   -7.1706 C   0  0  0  0  0  0  0  0  0  0  0  0
   50.0277   -5.1004   -6.3186 Cl  0  0  0  0  0  0  0  0  0  0  0  0
   52.6997   -5.0746   -6.8654 C   0  0  0  0  0  0  0  0  0  0  0  0
   53.7091   -4.5747   -7.5432 N   0  0  0  0  0  0  0  0  0  0  0  0
   54.9104   -3.2056   -9.1030 N   0  0  0  0  0  0  0  0  0  0  0  0
   54.9189   -2.2396   -9.5919 H   0  0  0  0  0  0  0  0  0  0  0  0
   56.8820   -3.9808   -7.9729 C   0  0  0  0  0  0  0  0  0  0  0  0
   58.0555   -4.6673   -8.0153 C   0  0  0  0  0  0  0  0  0  0  0  0
   58.5264   -5.2930   -9.1390 C   0  0  0  0  0  0  0  0  0  0  0  0
   57.7591   -5.2115  -10.2723 C   0  0  0  0  0  0  0  0  0  0  0  0
   56.5515   -4.5249  -10.2913 C   0  0  0  0  0  0  0  0  0  0  0  0
   56.1021   -3.9072   -9.1543 C   0  0  0  0  0  0  0  0  0  0  0  0
   59.7672   -6.0191   -9.1793 N   0  0  0  0  0  0  0  0  0  0  0  0
   60.4019   -6.1032  -10.4719 C   0  0  0  0  0  0  0  0  0  0  0  0
   61.7658   -6.6902  -10.4837 C   0  0  0  0  0  0  0  0  0  0  0  0
   62.4012   -6.7264   -9.1281 C   0  0  0  0  0  0  0  0  0  0  0  0
   61.4791   -7.4770   -8.1895 C   0  0  0  0  0  0  0  0  0  0  0  0
   60.2762   -6.5935   -7.9773 C   0  0  0  0  0  0  0  0  0  0  0  0
   63.7209   -7.3055   -9.1929 N   0  0  0  0  0  0  0  0  0  0  0  0
   64.3102   -7.4922   -7.9011 C   0  0  0  0  0  0  0  0  0  0  0  0
   63.7745   -8.4910  -10.0161 C   0  0  0  0  0  0  0  0  0  0  0  0
   56.2854   -4.0712   -5.6400 C   0  0  0  0  0  0  0  0  0  0  0  0
   56.4177   -3.3539   -6.8331 O   0  0  0  0  0  0  0  0  0  0  0  0
   52.7794   -6.1214   -5.9209 N   0  0  0  0  0  0  0  0  0  0  0  0
   52.9763   -7.0608   -6.3228 H   0  0  0  0  0  0  0  0  0  0  0  0
   52.5902   -6.0036   -4.5469 C   0  0  0  0  0  0  0  0  0  0  0  0
   51.4967   -5.3543   -3.9733 C   0  0  0  0  0  0  0  0  0  0  0  0
   51.2751   -5.3597   -2.6043 C   0  0  0  0  0  0  0  0  0  0  0  0
   52.1292   -6.0094   -1.7580 C   0  0  0  0  0  0  0  0  0  0  0  0
   53.2022   -6.6454   -2.3201 C   0  0  0  0  0  0  0  0  0  0  0  0
   53.4731   -6.6688   -3.6948 C   0  0  0  0  0  0  0  0  0  0  0  0
   54.9275   -7.4121   -4.2064 S   0  0  0  0  0  0  0  0  0  0  0  0
   54.9641   -8.8325   -3.5957 O   0  0  0  0  0  0  0  0  0  0  0  0
   55.0132   -7.6896   -5.6873 O   0  0  0  0  0  0  0  0  0  0  0  0
   56.4182   -6.6550   -3.6462 C   0  0  0  0  0  0  0  0  0  0  0  0
   56.5342   -6.7571   -2.1221 C   0  0  0  0  0  0  0  0  0  0  0  0
   57.6673   -7.1912   -4.2116 C   0  0  0  0  0  0  0  0  0  0  0  0
 25 26  1  0  0  0
 26 10  1  0  0  0
 10 11  2  0  0  0
 11 12  1  0  0  0
 12 13  2  0  0  0
 13 14  1  0  0  0
 14 15  2  0  0  0
 15  8  1  0  0  0
  8  1  1  0  0  0
  1  2  2  0  0  0
  2  3  1  0  0  0
  3  4  2  0  0  0
  4  5  1  0  0  0
  4  6  1  0  0  0
  6 27  1  0  0  0
 27 29  1  0  0  0
 29 30  2  0  0  0
 30 31  1  0  0  0
 31 32  2  0  0  0
 32 33  1  0  0  0
 33 34  2  0  0  0
 34 35  1  0  0  0
 35 36  2  0  0  0
 35 37  2  0  0  0
 35 38  1  0  0  0
 38 39  1  0  0  0
 38 40  1  0  0  0
  6  7  2  0  0  0
 12 16  1  0  0  0
 16 17  1  0  0  0
 17 18  1  0  0  0
 18 19  1  0  0  0
 19 20  1  0  0  0
 20 21  1  0  0  0
 19 22  1  0  0  0
 22 23  1  0  0  0
 22 24  1  0  0  0
 15 10  1  0  0  0
  7  1  1  0  0  0
 21 16  1  0  0  0
 34 29  1  0  0  0
  8  9  1  0  0  0
 27 28  1  0  0  0
M  END
> <minimizedAffinity>
-7.03658

> <CNNscore>
0.6972926259

> <CNNaffinity>
7.9105653763

> <CNN_VS>
5.5159788132

> <CNNaffinity_variance>
0.1205147058

$$$$
[H]c1nc(N([H])c2c([H])c([H])c(N3C([H])([H])C([H])([H])C([H])(N(C([H])([H])[H])C([H])([H])[H])C([H])([H])C3([H])[H])c([H])c2OC([H])([H])[H])nc(N([H])c2c([H])c([H])c([H])c([H])c2S(=O)(=O)C([H])(C([H])([H])[H])C([H])([H])[H])c1Cl


 40 43  0  0  0  0  0  0  0  0999 V2000
   54.7650   -4.6062   -8.2287 C   0  0  0  0  0  0  0  0  0  0  0  0
   53.8918   -3.6906   -8.6344 N   0  0  0  0  0  0  0  0  0  0  0  0
   52.6501   -3.5927   -8.1432 C   0  0  0  0  0  0  0  0  0  0  0  0
   52.2117   -4.4542   -7.1747 C   0  0  0  0  0  0  0  0  0  0  0  0
   50.6043   -4.3661   -6.4909 Cl  0  0  0  0  0  0  0  0  0  0  0  0
   53.0979   -5.4503   -6.7038 C   0  0  0  0  0  0  0  0  0  0  0  0
   54.2879   -5.4451   -7.2624 N   0  0  0  0  0  0  0  0  0  0  0  0
   56.0968   -4.7840   -8.6912 N   0  0  0  0  0  0  0  0  0  0  0  0
   56.8023   -5.1942   -7.9797 H   0  0  0  0  0  0  0  0  0  0  0  0
   57.9785   -4.7986  -10.1825 C   0  0  0  0  0  0  0  0  0  0  0  0
   58.4951   -4.5197  -11.4095 C   0  0  0  0  0  0  0  0  0  0  0  0
   57.7681   -3.9638  -12.4286 C   0  0  0  0  0  0  0  0  0  0  0  0
   56.4502   -3.6804  -12.1788 C   0  0  0  0  0  0  0  0  0  0  0  0
   55.8657   -3.9421  -10.9459 C   0  0  0  0  0  0  0  0  0  0  0  0
   56.6140   -4.4986   -9.9426 C   0  0  0  0  0  0  0  0  0  0  0  0
   58.3178   -3.6717  -13.7251 N   0  0  0  0  0  0  0  0  0  0  0  0
   57.3707   -3.6305  -14.8122 C   0  0  0  0  0  0  0  0  0  0  0  0
   57.9024   -3.1513  -16.1131 C   0  0  0  0  0  0  0  0  0  0  0  0
   59.2056   -2.4253  -15.9832 C   0  0  0  0  0  0  0  0  0  0  0  0
   60.1905   -3.3360  -15.2795 C   0  0  0  0  0  0  0  0  0  0  0  0
   59.7208   -3.4491  -13.8515 C   0  0  0  0  0  0  0  0  0  0  0  0
   59.6797   -1.9826  -17.2718 N   0  0  0  0  0  0  0  0  0  0  0  0
   60.7654   -2.7745  -17.7669 C   0  0  0  0  0  0  0  0  0  0  0  0
   58.6161   -1.8153  -18.2345 C   0  0  0  0  0  0  0  0  0  0  0  0
   59.8608   -6.1164   -9.4567 C   0  0  0  0  0  0  0  0  0  0  0  0
   58.7222   -5.3595   -9.1628 O   0  0  0  0  0  0  0  0  0  0  0  0
   52.6472   -6.3727   -5.7341 N   0  0  0  0  0  0  0  0  0  0  0  0
   52.2920   -7.2728   -6.1165 H   0  0  0  0  0  0  0  0  0  0  0  0
   52.6126   -6.1660   -4.3580 C   0  0  0  0  0  0  0  0  0  0  0  0
   51.5466   -5.5543   -3.6979 C   0  0  0  0  0  0  0  0  0  0  0  0
   51.4892   -5.4728   -2.3146 C   0  0  0  0  0  0  0  0  0  0  0  0
   52.4859   -5.9954   -1.5392 C   0  0  0  0  0  0  0  0  0  0  0  0
   53.5320   -6.5945   -2.1863 C   0  0  0  0  0  0  0  0  0  0  0  0
   53.6397   -6.7016   -3.5793 C   0  0  0  0  0  0  0  0  0  0  0  0
   55.0778   -7.3766   -4.2162 S   0  0  0  0  0  0  0  0  0  0  0  0
   55.5274   -8.5036   -3.2574 O   0  0  0  0  0  0  0  0  0  0  0  0
   54.9116   -8.1075   -5.5261 O   0  0  0  0  0  0  0  0  0  0  0  0
   56.4661   -6.2928   -4.3010 C   0  0  0  0  0  0  0  0  0  0  0  0
   56.0494   -4.8570   -3.9671 C   0  0  0  0  0  0  0  0  0  0  0  0
   57.6018   -6.6278   -3.4261 C   0  0  0  0  0  0  0  0  0  0  0  0
 25 26  1  0  0  0
 26 10  1  0  0  0
 10 11  2  0  0  0
 11 12  1  0  0  0
 12 13  2  0  0  0
 13 14  1  0  0  0
 14 15  2  0  0  0
 15  8  1  0  0  0
  8  1  1  0  0  0
  1  2  2  0  0  0
  2  3  1  0  0  0
  3  4  2  0  0  0
  4  5  1  0  0  0
  4  6  1  0  0  0
  6 27  1  0  0  0
 27 29  1  0  0  0
 29 30  2  0  0  0
 30 31  1  0  0  0
 31 32  2  0  0  0
 32 33  1  0  0  0
 33 34  2  0  0  0
 34 35  1  0  0  0
 35 36  2  0  0  0
 35 37  2  0  0  0
 35 38  1  0  0  0
 38 39  1  0  0  0
 38 40  1  0  0  0
  6  7  2  0  0  0
 12 16  1  0  0  0
 16 17  1  0  0  0
 17 18  1  0  0  0
 18 19  1  0  0  0
 19 20  1  0  0  0
 20 21  1  0  0  0
 19 22  1  0  0  0
 22 23  1  0  0  0
 22 24  1  0  0  0
 15 10  1  0  0  0
  7  1  1  0  0  0
 21 16  1  0  0  0
 34 29  1  0  0  0
  8  9  1  0  0  0
 27 28  1  0  0  0
M  END
> <minimizedAffinity>
-8.75515

> <CNNscore>
0.3334278464

> <CNNaffinity>
7.2982110977

> <CNN_VS>
2.4334268570

> <CNNaffinity_variance>
0.0513084754

$$$$
[H]c1nc(N([H])c2c([H])c([H])c(N3C([H])([H])C([H])([H])C([H])(N(C([H])([H])[H])C([H])([H])[H])C([H])([H])C3([H])[H])c([H])c2OC([H])([H])[H])nc(N([H])c2c([H])c([H])c([H])c([H])c2S(=O)(=O)C([H])(C([H])([H])[H])C([H])([H])[H])c1Cl


 40 43  0  0  0  0  0  0  0  0999 V2000
   60.4370   -6.6293   -9.3354 C   0  0  0  0  0  0  0  0  0  0  0  0
   60.2242   -7.7786   -9.9671 N   0  0  0  0  0  0  0  0  0  0  0  0
   60.9711   -8.8724   -9.7716 C   0  0  0  0  0  0  0  0  0  0  0  0
   62.0161   -8.8563   -8.8883 C   0  0  0  0  0  0  0  0  0  0  0  0
   63.0182  -10.2578   -8.5869 Cl  0  0  0  0  0  0  0  0  0  0  0  0
   62.2905   -7.6599   -8.1866 C   0  0  0  0  0  0  0  0  0  0  0  0
   61.4882   -6.6560   -8.4640 N   0  0  0  0  0  0  0  0  0  0  0  0
   59.6993   -5.4233   -9.4792 N   0  0  0  0  0  0  0  0  0  0  0  0
   60.2444   -4.5683   -9.8587 H   0  0  0  0  0  0  0  0  0  0  0  0
   57.5017   -4.8666  -10.2701 C   0  0  0  0  0  0  0  0  0  0  0  0
   56.1879   -4.6413   -9.9989 C   0  0  0  0  0  0  0  0  0  0  0  0
   55.6508   -4.7165   -8.7412 C   0  0  0  0  0  0  0  0  0  0  0  0
   56.4994   -5.0376   -7.7133 C   0  0  0  0  0  0  0  0  0  0  0  0
   57.8508   -5.2787   -7.9273 C   0  0  0  0  0  0  0  0  0  0  0  0
   58.3640   -5.1972   -9.1948 C   0  0  0  0  0  0  0  0  0  0  0  0
   54.2608   -4.4789   -8.4587 N   0  0  0  0  0  0  0  0  0  0  0  0
   53.5546   -5.5675   -7.8289 C   0  0  0  0  0  0  0  0  0  0  0  0
   52.1753   -5.2626   -7.3713 C   0  0  0  0  0  0  0  0  0  0  0  0
   51.8983   -3.7938   -7.2798 C   0  0  0  0  0  0  0  0  0  0  0  0
   52.1893   -3.1690   -8.6287 C   0  0  0  0  0  0  0  0  0  0  0  0
   53.6850   -3.2220   -8.8089 C   0  0  0  0  0  0  0  0  0  0  0  0
   50.5480   -3.5509   -6.8336 N   0  0  0  0  0  0  0  0  0  0  0  0
   50.3023   -4.0433   -5.5114 C   0  0  0  0  0  0  0  0  0  0  0  0
   50.1357   -2.1783   -7.0121 C   0  0  0  0  0  0  0  0  0  0  0  0
   57.7819   -3.6664  -12.3408 C   0  0  0  0  0  0  0  0  0  0  0  0
   58.0314   -4.7877  -11.5433 O   0  0  0  0  0  0  0  0  0  0  0  0
   63.3905   -7.6151   -7.3022 N   0  0  0  0  0  0  0  0  0  0  0  0
   63.7410   -8.5439   -6.9905 H   0  0  0  0  0  0  0  0  0  0  0  0
   64.0001   -6.4655   -6.8077 C   0  0  0  0  0  0  0  0  0  0  0  0
   64.5644   -5.4826   -7.6212 C   0  0  0  0  0  0  0  0  0  0  0  0
   65.0552   -4.2935   -7.1031 C   0  0  0  0  0  0  0  0  0  0  0  0
   65.0024   -4.0383   -5.7614 C   0  0  0  0  0  0  0  0  0  0  0  0
   64.4499   -5.0025   -4.9632 C   0  0  0  0  0  0  0  0  0  0  0  0
   63.9422   -6.2204   -5.4350 C   0  0  0  0  0  0  0  0  0  0  0  0
   63.3988   -7.3575   -4.2768 S   0  0  0  0  0  0  0  0  0  0  0  0
   64.1631   -8.6784   -4.5273 O   0  0  0  0  0  0  0  0  0  0  0  0
   63.7628   -7.0338   -2.8484 O   0  0  0  0  0  0  0  0  0  0  0  0
   61.6973   -7.8088   -4.3794 C   0  0  0  0  0  0  0  0  0  0  0  0
   61.5539   -9.2810   -4.7774 C   0  0  0  0  0  0  0  0  0  0  0  0
   60.9019   -7.6121   -3.1563 C   0  0  0  0  0  0  0  0  0  0  0  0
 25 26  1  0  0  0
 26 10  1  0  0  0
 10 11  2  0  0  0
 11 12  1  0  0  0
 12 13  2  0  0  0
 13 14  1  0  0  0
 14 15  2  0  0  0
 15  8  1  0  0  0
  8  1  1  0  0  0
  1  2  2  0  0  0
  2  3  1  0  0  0
  3  4  2  0  0  0
  4  5  1  0  0  0
  4  6  1  0  0  0
  6 27  1  0  0  0
 27 29  1  0  0  0
 29 30  2  0  0  0
 30 31  1  0  0  0
 31 32  2  0  0  0
 32 33  1  0  0  0
 33 34  2  0  0  0
 34 35  1  0  0  0
 35 36  2  0  0  0
 35 37  2  0  0  0
 35 38  1  0  0  0
 38 39  1  0  0  0
 38 40  1  0  0  0
  6  7  2  0  0  0
 12 16  1  0  0  0
 16 17  1  0  0  0
 17 18  1  0  0  0
 18 19  1  0  0  0
 19 20  1  0  0  0
 20 21  1  0  0  0
 19 22  1  0  0  0
 22 23  1  0  0  0
 22 24  1  0  0  0
 15 10  1  0  0  0
  7  1  1  0  0  0
 21 16  1  0  0  0
 34 29  1  0  0  0
  8  9  1  0  0  0
 27 28  1  0  0  0
M  END
> <minimizedAffinity>
-8.06043

> <CNNscore>
0.2764265835

> <CNNaffinity>
6.5224266052

> <CNN_VS>
1.8029720783

> <CNNaffinity_variance>
0.3623194695

$$$$
[H]c1nc(N([H])c2c([H])c([H])c(N3C([H])([H])C([H])([H])C([H])(N(C([H])([H])[H])C([H])([H])[H])C([H])([H])C3([H])[H])c([H])c2OC([H])([H])[H])nc(N([H])c2c([H])c([H])c([H])c([H])c2S(=O)(=O)C([H])(C([H])([H])[H])C([H])([H])[H])c1Cl


 40 43  0  0  0  0  0  0  0  0999 V2000
   60.7937   -6.5096   -9.5454 C   0  0  0  0  0  0  0  0  0  0  0  0
   61.7760   -6.0373   -8.7855 N   0  0  0  0  0  0  0  0  0  0  0  0
   62.7217   -6.8141   -8.2426 C   0  0  0  0  0  0  0  0  0  0  0  0
   62.7199   -8.1665   -8.4511 C   0  0  0  0  0  0  0  0  0  0  0  0
   63.9352   -9.2269   -7.7747 Cl  0  0  0  0  0  0  0  0  0  0  0  0
   61.6978   -8.7262   -9.2519 C   0  0  0  0  0  0  0  0  0  0  0  0
   60.8286   -7.8625   -9.7281 N   0  0  0  0  0  0  0  0  0  0  0  0
   59.7519   -5.7637  -10.1601 N   0  0  0  0  0  0  0  0  0  0  0  0
   59.9429   -5.4088  -11.1650 H   0  0  0  0  0  0  0  0  0  0  0  0
   57.5312   -4.9277  -10.5262 C   0  0  0  0  0  0  0  0  0  0  0  0
   56.3132   -4.5947  -10.0203 C   0  0  0  0  0  0  0  0  0  0  0  0
   55.9841   -4.7174   -8.6964 C   0  0  0  0  0  0  0  0  0  0  0  0
   56.9479   -5.2038   -7.8514 C   0  0  0  0  0  0  0  0  0  0  0  0
   58.2103   -5.5609   -8.3086 C   0  0  0  0  0  0  0  0  0  0  0  0
   58.5151   -5.4289   -9.6375 C   0  0  0  0  0  0  0  0  0  0  0  0
   54.6946   -4.3655   -8.1656 N   0  0  0  0  0  0  0  0  0  0  0  0
   54.0874   -3.1837   -8.7271 C   0  0  0  0  0  0  0  0  0  0  0  0
   52.6848   -2.9219   -8.3162 C   0  0  0  0  0  0  0  0  0  0  0  0
   52.0153   -4.1197   -7.7166 C   0  0  0  0  0  0  0  0  0  0  0  0
   52.8563   -4.6032   -6.5532 C   0  0  0  0  0  0  0  0  0  0  0  0
   54.1153   -5.1802   -7.1484 C   0  0  0  0  0  0  0  0  0  0  0  0
   50.6585   -3.8138   -7.3334 N   0  0  0  0  0  0  0  0  0  0  0  0
   50.2311   -4.5389   -6.1747 C   0  0  0  0  0  0  0  0  0  0  0  0
   50.4083   -2.3947   -7.2372 C   0  0  0  0  0  0  0  0  0  0  0  0
   56.9471   -4.2037  -12.7492 C   0  0  0  0  0  0  0  0  0  0  0  0
   57.8509   -4.7995  -11.8638 O   0  0  0  0  0  0  0  0  0  0  0  0
   61.6585  -10.1248   -9.4429 N   0  0  0  0  0  0  0  0  0  0  0  0
   61.6587  -10.4321  -10.4370 H   0  0  0  0  0  0  0  0  0  0  0  0
   61.5894  -11.0886   -8.4408 C   0  0  0  0  0  0  0  0  0  0  0  0
   60.8501  -10.9287   -7.2686 C   0  0  0  0  0  0  0  0  0  0  0  0
   60.7043  -11.9547   -6.3470 C   0  0  0  0  0  0  0  0  0  0  0  0
   61.2856  -13.1738   -6.5567 C   0  0  0  0  0  0  0  0  0  0  0  0
   62.0114  -13.3306   -7.7058 C   0  0  0  0  0  0  0  0  0  0  0  0
   62.1916  -12.3272   -8.6672 C   0  0  0  0  0  0  0  0  0  0  0  0
   63.2317  -12.6649   -9.9839 S   0  0  0  0  0  0  0  0  0  0  0  0
   63.9881  -11.3601  -10.3260 O   0  0  0  0  0  0  0  0  0  0  0  0
   64.3554  -13.6244   -9.6768 O   0  0  0  0  0  0  0  0  0  0  0  0
   62.4416  -13.1226  -11.4924 C   0  0  0  0  0  0  0  0  0  0  0  0
   63.2230  -14.2388  -12.1924 C   0  0  0  0  0  0  0  0  0  0  0  0
   61.0461  -13.5776  -11.3786 C   0  0  0  0  0  0  0  0  0  0  0  0
 25 26  1  0  0  0
 26 10  1  0  0  0
 10 11  2  0  0  0
 11 12  1  0  0  0
 12 13  2  0  0  0
 13 14  1  0  0  0
 14 15  2  0  0  0
 15  8  1  0  0  0
  8  1  1  0  0  0
  1  2  2  0  0  0
  2  3  1  0  0  0
  3  4  2  0  0  0
  4  5  1  0  0  0
  4  6  1  0  0  0
  6 27  1  0  0  0
 27 29  1  0  0  0
 29 30  2  0  0  0
 30 31  1  0  0  0
 31 32  2  0  0  0
 32 33  1  0  0  0
 33 34  2  0  0  0
 34 35  1  0  0  0
 35 36  2  0  0  0
 35 37  2  0  0  0
 35 38  1  0  0  0
 38 39  1  0  0  0
 38 40  1  0  0  0
  6  7  2  0  0  0
 12 16  1  0  0  0
 16 17  1  0  0  0
 17 18  1  0  0  0
 18 19  1  0  0  0
 19 20  1  0  0  0
 20 21  1  0  0  0
 19 22  1  0  0  0
 22 23  1  0  0  0
 22 24  1  0  0  0
 15 10  1  0  0  0
  7  1  1  0  0  0
 21 16  1  0  0  0
 34 29  1  0  0  0
  8  9  1  0  0  0
 27 28  1  0  0  0
M  END
> <minimizedAffinity>
-7.95673

> <CNNscore>
0.2523784637

> <CNNaffinity>
6.3286085129

> <CNN_VS>
1.5972044468

> <CNNaffinity_variance>
0.2868877053

$$$$
[H]c1nc(N([H])c2c([H])c([H])c(N3C([H])([H])C([H])([H])C([H])(N(C([H])([H])[H])C([H])([H])[H])C([H])([H])C3([H])[H])c([H])c2OC([H])([H])[H])nc(N([H])c2c([H])c([H])c([H])c([H])c2S(=O)(=O)C([H])(C([H])([H])[H])C([H])([H])[H])c1Cl


 40 43  0  0  0  0  0  0  0  0999 V2000
   50.3736   -5.0709   -3.4649 C   0  0  0  0  0  0  0  0  0  0  0  0
   49.4748   -4.0998   -3.5849 N   0  0  0  0  0  0  0  0  0  0  0  0
   49.2468   -3.4490   -4.7326 C   0  0  0  0  0  0  0  0  0  0  0  0
   49.9480   -3.7627   -5.8650 C   0  0  0  0  0  0  0  0  0  0  0  0
   49.6848   -2.9522   -7.3924 Cl  0  0  0  0  0  0  0  0  0  0  0  0
   50.9186   -4.7886   -5.7973 C   0  0  0  0  0  0  0  0  0  0  0  0
   51.0506   -5.3523   -4.6170 N   0  0  0  0  0  0  0  0  0  0  0  0
   50.6817   -5.8129   -2.2928 N   0  0  0  0  0  0  0  0  0  0  0  0
   49.8435   -6.2557   -1.7698 H   0  0  0  0  0  0  0  0  0  0  0  0
   52.2500   -7.3753   -1.3632 C   0  0  0  0  0  0  0  0  0  0  0  0
   53.4680   -7.6118   -0.8058 C   0  0  0  0  0  0  0  0  0  0  0  0
   54.3988   -6.6334   -0.5770 C   0  0  0  0  0  0  0  0  0  0  0  0
   54.0660   -5.3527   -0.9360 C   0  0  0  0  0  0  0  0  0  0  0  0
   52.8375   -5.0486   -1.5092 C   0  0  0  0  0  0  0  0  0  0  0  0
   51.9234   -6.0451   -1.7279 C   0  0  0  0  0  0  0  0  0  0  0  0
   55.6862   -6.8878    0.0113 N   0  0  0  0  0  0  0  0  0  0  0  0
   55.9139   -8.2398    0.4596 C   0  0  0  0  0  0  0  0  0  0  0  0
   57.2986   -8.5497    0.8970 C   0  0  0  0  0  0  0  0  0  0  0  0
   58.3014   -7.5399    0.4310 C   0  0  0  0  0  0  0  0  0  0  0  0
   57.8584   -6.1725    0.9090 C   0  0  0  0  0  0  0  0  0  0  0  0
   56.6274   -5.8211    0.1129 C   0  0  0  0  0  0  0  0  0  0  0  0
   59.6277   -7.8845    0.8823 N   0  0  0  0  0  0  0  0  0  0  0  0
   59.9694   -9.2490    0.6135 C   0  0  0  0  0  0  0  0  0  0  0  0
   60.6339   -6.9503    0.4345 C   0  0  0  0  0  0  0  0  0  0  0  0
   51.6495   -9.7090   -1.3508 C   0  0  0  0  0  0  0  0  0  0  0  0
   51.3197   -8.3710   -1.5889 O   0  0  0  0  0  0  0  0  0  0  0  0
   51.6792   -5.0961   -6.9468 N   0  0  0  0  0  0  0  0  0  0  0  0
   51.5510   -6.0619   -7.3122 H   0  0  0  0  0  0  0  0  0  0  0  0
   52.5790   -4.2485   -7.5868 C   0  0  0  0  0  0  0  0  0  0  0  0
   52.1898   -3.1472   -8.3497 C   0  0  0  0  0  0  0  0  0  0  0  0
   53.1124   -2.2538   -8.8731 C   0  0  0  0  0  0  0  0  0  0  0  0
   54.4515   -2.4214   -8.6572 C   0  0  0  0  0  0  0  0  0  0  0  0
   54.8336   -3.5018   -7.9098 C   0  0  0  0  0  0  0  0  0  0  0  0
   53.9436   -4.4345   -7.3604 C   0  0  0  0  0  0  0  0  0  0  0  0
   54.6092   -5.7903   -6.5553 S   0  0  0  0  0  0  0  0  0  0  0  0
   53.7702   -7.0266   -6.9542 O   0  0  0  0  0  0  0  0  0  0  0  0
   55.9973   -6.1776   -7.0031 O   0  0  0  0  0  0  0  0  0  0  0  0
   54.5301   -5.7560   -4.7941 C   0  0  0  0  0  0  0  0  0  0  0  0
   54.5083   -7.1793   -4.2283 C   0  0  0  0  0  0  0  0  0  0  0  0
   55.6185   -5.0363   -4.1123 C   0  0  0  0  0  0  0  0  0  0  0  0
 25 26  1  0  0  0
 26 10  1  0  0  0
 10 11  2  0  0  0
 11 12  1  0  0  0
 12 13  2  0  0  0
 13 14  1  0  0  0
 14 15  2  0  0  0
 15  8  1  0  0  0
  8  1  1  0  0  0
  1  2  2  0  0  0
  2  3  1  0  0  0
  3  4  2  0  0  0
  4  5  1  0  0  0
  4  6  1  0  0  0
  6 27  1  0  0  0
 27 29  1  0  0  0
 29 30  2  0  0  0
 30 31  1  0  0  0
 31 32  2  0  0  0
 32 33  1  0  0  0
 33 34  2  0  0  0
 34 35  1  0  0  0
 35 36  2  0  0  0
 35 37  2  0  0  0
 35 38  1  0  0  0
 38 39  1  0  0  0
 38 40  1  0  0  0
  6  7  2  0  0  0
 12 16  1  0  0  0
 16 17  1  0  0  0
 17 18  1  0  0  0
 18 19  1  0  0  0
 19 20  1  0  0  0
 20 21  1  0  0  0
 19 22  1  0  0  0
 22 23  1  0  0  0
 22 24  1  0  0  0
 15 10  1  0  0  0
  7  1  1  0  0  0
 21 16  1  0  0  0
 34 29  1  0  0  0
  8  9  1  0  0  0
 27 28  1  0  0  0
M  END
> <minimizedAffinity>
-8.63039

> <CNNscore>
0.2356534004

> <CNNaffinity>
7.5201964378

> <CNN_VS>
1.7721598148

> <CNNaffinity_variance>
0.2988102138

$$$$
[H]c1nc(N([H])c2c([H])c([H])c(N3C([H])([H])C([H])([H])C([H])(N(C([H])([H])[H])C([H])([H])[H])C([H])([H])C3([H])[H])c([H])c2OC([H])([H])[H])nc(N([H])c2c([H])c([H])c([H])c([H])c2S(=O)(=O)C([H])(C([H])([H])[H])C([H])([H])[H])c1Cl


 40 43  0  0  0  0  0  0  0  0999 V2000
   60.1512   -6.2366   -9.4711 C   0  0  0  0  0  0  0  0  0  0  0  0
   60.9136   -5.9139   -8.4318 N   0  0  0  0  0  0  0  0  0  0  0  0
   61.8069   -6.7508   -7.8895 C   0  0  0  0  0  0  0  0  0  0  0  0
   61.9803   -8.0108   -8.3943 C   0  0  0  0  0  0  0  0  0  0  0  0
   63.1387   -9.1414   -7.7317 Cl  0  0  0  0  0  0  0  0  0  0  0  0
   61.1959   -8.4102   -9.5008 C   0  0  0  0  0  0  0  0  0  0  0  0
   60.3554   -7.5015   -9.9436 N   0  0  0  0  0  0  0  0  0  0  0  0
   59.1813   -5.4171  -10.1092 N   0  0  0  0  0  0  0  0  0  0  0  0
   59.4766   -4.9639  -11.0471 H   0  0  0  0  0  0  0  0  0  0  0  0
   56.9978   -4.5637  -10.6274 C   0  0  0  0  0  0  0  0  0  0  0  0
   55.7350   -4.2674  -10.2177 C   0  0  0  0  0  0  0  0  0  0  0  0
   55.2842   -4.4776   -8.9416 C   0  0  0  0  0  0  0  0  0  0  0  0
   56.1685   -5.0166   -8.0431 C   0  0  0  0  0  0  0  0  0  0  0  0
   57.4712   -5.3400   -8.4017 C   0  0  0  0  0  0  0  0  0  0  0  0
   57.8982   -5.1201   -9.6846 C   0  0  0  0  0  0  0  0  0  0  0  0
   53.9477   -4.1642   -8.5127 N   0  0  0  0  0  0  0  0  0  0  0  0
   53.2597   -5.2081   -7.7932 C   0  0  0  0  0  0  0  0  0  0  0  0
   51.9566   -4.8265   -7.1924 C   0  0  0  0  0  0  0  0  0  0  0  0
   51.7673   -3.3443   -7.0933 C   0  0  0  0  0  0  0  0  0  0  0  0
   51.9403   -2.7484   -8.4752 C   0  0  0  0  0  0  0  0  0  0  0  0
   53.4024   -2.8819   -8.8167 C   0  0  0  0  0  0  0  0  0  0  0  0
   50.4885   -3.0262   -6.5060 N   0  0  0  0  0  0  0  0  0  0  0  0
   49.4940   -2.6987   -7.4830 C   0  0  0  0  0  0  0  0  0  0  0  0
   50.0437   -4.0195   -5.5566 C   0  0  0  0  0  0  0  0  0  0  0  0
   56.5345   -3.9913  -12.9218 C   0  0  0  0  0  0  0  0  0  0  0  0
   57.4405   -4.3469  -11.9176 O   0  0  0  0  0  0  0  0  0  0  0  0
   61.3338   -9.7211  -10.0074 N   0  0  0  0  0  0  0  0  0  0  0  0
   60.5114  -10.3397   -9.8537 H   0  0  0  0  0  0  0  0  0  0  0  0
   62.4567  -10.2409  -10.6451 C   0  0  0  0  0  0  0  0  0  0  0  0
   63.2152   -9.5261  -11.5724 C   0  0  0  0  0  0  0  0  0  0  0  0
   64.3962  -10.0285  -12.0981 C   0  0  0  0  0  0  0  0  0  0  0  0
   64.8654  -11.2557  -11.7216 C   0  0  0  0  0  0  0  0  0  0  0  0
   64.1212  -11.9573  -10.8129 C   0  0  0  0  0  0  0  0  0  0  0  0
   62.9217  -11.4972  -10.2534 C   0  0  0  0  0  0  0  0  0  0  0  0
   62.0641  -12.5624   -9.2241 S   0  0  0  0  0  0  0  0  0  0  0  0
   63.0992  -13.2652   -8.3151 O   0  0  0  0  0  0  0  0  0  0  0  0
   61.1553  -11.8879   -8.2257 O   0  0  0  0  0  0  0  0  0  0  0  0
   61.2111  -13.8840  -10.0211 C   0  0  0  0  0  0  0  0  0  0  0  0
   61.0049  -13.5732  -11.5069 C   0  0  0  0  0  0  0  0  0  0  0  0
   61.8510  -15.2074   -9.9410 C   0  0  0  0  0  0  0  0  0  0  0  0
 25 26  1  0  0  0
 26 10  1  0  0  0
 10 11  2  0  0  0
 11 12  1  0  0  0
 12 13  2  0  0  0
 13 14  1  0  0  0
 14 15  2  0  0  0
 15  8  1  0  0  0
  8  1  1  0  0  0
  1  2  2  0  0  0
  2  3  1  0  0  0
  3  4  2  0  0  0
  4  5  1  0  0  0
  4  6  1  0  0  0
  6 27  1  0  0  0
 27 29  1  0  0  0
 29 30  2  0  0  0
 30 31  1  0  0  0
 31 32  2  0  0  0
 32 33  1  0  0  0
 33 34  2  0  0  0
 34 35  1  0  0  0
 35 36  2  0  0  0
 35 37  2  0  0  0
 35 38  1  0  0  0
 38 39  1  0  0  0
 38 40  1  0  0  0
  6  7  2  0  0  0
 12 16  1  0  0  0
 16 17  1  0  0  0
 17 18  1  0  0  0
 18 19  1  0  0  0
 19 20  1  0  0  0
 20 21  1  0  0  0
 19 22  1  0  0  0
 22 23  1  0  0  0
 22 24  1  0  0  0
 15 10  1  0  0  0
  7  1  1  0  0  0
 21 16  1  0  0  0
 34 29  1  0  0  0
  8  9  1  0  0  0
 27 28  1  0  0  0
M  END
> <minimizedAffinity>
-8.21697

> <CNNscore>
0.2324961126

> <CNNaffinity>
6.2324457169

> <CNN_VS>
1.4490194321

> <CNNaffinity_variance>
0.2689290941

$$$$
[H]OC([H])([H])[C@@]1(O[H])C([H])([H])[C@@]2([H])O[C@]1(C([H])([H])[H])n1c3c([H])c([H])c([H])c([H])c3c3c4c(c5c6c([H])c([H])c([H])c([H])c6n2c5c31)C(=O)N([H])C4([H])[H]


 36 43  0  0  0  0  0  0  0  0999 V2000
   54.1690   -8.0435   -3.0283 C   0  0  0  0  0  0  0  0  0  0  0  0
   54.5461   -6.8315   -3.8091 C   0  0  0  0  0  0  0  0  0  0  0  0
   55.2457   -7.4340   -4.8911 O   0  0  0  0  0  0  0  0  0  0  0  0
   56.1976   -6.5889   -5.3491 C   0  0  0  0  0  0  0  0  0  0  0  0
   56.6865   -5.8108   -4.2032 C   0  0  0  0  0  0  0  0  0  0  0  0
   55.6035   -5.9867   -3.1620 C   0  0  0  0  0  0  0  0  0  0  0  0
   55.1590   -4.7150   -2.8329 O   0  0  0  0  0  0  0  0  0  0  0  0
   55.6802   -5.7759   -6.4575 N   0  0  0  0  0  0  0  0  0  0  0  0
   56.2889   -5.3882   -7.5650 C   0  0  0  0  0  0  0  0  0  0  0  0
   57.5738   -5.6432   -7.9689 C   0  0  0  0  0  0  0  0  0  0  0  0
   57.9976   -5.1255   -9.1867 C   0  0  0  0  0  0  0  0  0  0  0  0
   57.1506   -4.3783   -9.9644 C   0  0  0  0  0  0  0  0  0  0  0  0
   55.8377   -4.1163   -9.5545 C   0  0  0  0  0  0  0  0  0  0  0  0
   55.4321   -4.6296   -8.3568 C   0  0  0  0  0  0  0  0  0  0  0  0
   54.2436   -4.5697   -7.6651 C   0  0  0  0  0  0  0  0  0  0  0  0
   53.0245   -3.9636   -7.9080 C   0  0  0  0  0  0  0  0  0  0  0  0
   52.4791   -3.1611   -8.9880 C   0  0  0  0  0  0  0  0  0  0  0  0
   52.9886   -2.7784  -10.0425 O   0  0  0  0  0  0  0  0  0  0  0  0
   51.1304   -2.8337   -8.6393 N   0  0  0  0  0  0  0  0  0  0  0  0
   50.7852   -3.3958   -7.3562 C   0  0  0  0  0  0  0  0  0  0  0  0
   52.0284   -4.1011   -6.9592 C   0  0  0  0  0  0  0  0  0  0  0  0
   52.2165   -4.8222   -5.7853 C   0  0  0  0  0  0  0  0  0  0  0  0
   51.4548   -5.1056   -4.6957 C   0  0  0  0  0  0  0  0  0  0  0  0
   50.1625   -4.7413   -4.3954 C   0  0  0  0  0  0  0  0  0  0  0  0
   49.6071   -5.1520   -3.1800 C   0  0  0  0  0  0  0  0  0  0  0  0
   50.3795   -5.9119   -2.3200 C   0  0  0  0  0  0  0  0  0  0  0  0
   51.6775   -6.2655   -2.6450 C   0  0  0  0  0  0  0  0  0  0  0  0
   52.2428   -5.8738   -3.8347 C   0  0  0  0  0  0  0  0  0  0  0  0
   53.4730   -6.0692   -4.3806 N   0  0  0  0  0  0  0  0  0  0  0  0
   53.4231   -5.4030   -5.5832 C   0  0  0  0  0  0  0  0  0  0  0  0
   54.4403   -5.2873   -6.5050 C   0  0  0  0  0  0  0  0  0  0  0  0
   55.7018   -4.3842   -2.0772 H   0  0  0  0  0  0  0  0  0  0  0  0
   50.4500   -2.2639   -9.2114 H   0  0  0  0  0  0  0  0  0  0  0  0
   56.2168   -6.6055   -1.9519 C   0  0  0  0  0  0  0  0  0  0  0  0
   57.6026   -6.4723   -2.0450 O   0  0  0  0  0  0  0  0  0  0  0  0
   58.0589   -7.3363   -2.2099 H   0  0  0  0  0  0  0  0  0  0  0  0
  2  1  1  0  0  0
  2  3  1  0  0  0
  3  4  1  0  0  0
  4  5  1  0  0  0
  5  6  1  0  0  0
  6  7  1  0  0  0
  6 34  1  0  0  0
 34 35  1  0  0  0
  4  8  1  0  0  0
  8  9  1  0  0  0
  9 10  2  0  0  0
 10 11  1  0  0  0
 11 12  2  0  0  0
 12 13  1  0  0  0
 13 14  2  0  0  0
 14 15  1  0  0  0
 15 16  2  0  0  0
 16 17  1  0  0  0
 17 18  2  0  0  0
 17 19  1  0  0  0
 19 20  1  0  0  0
 20 21  1  0  0  0
 21 22  2  0  0  0
 22 23  1  0  0  0
 23 24  2  0  0  0
 24 25  1  0  0  0
 25 26  2  0  0  0
 26 27  1  0  0  0
 27 28  2  0  0  0
 28 29  1  0  0  0
 29 30  1  0  0  0
 30 31  2  0  0  0
  6  2  1  0  0  0
 31  8  1  0  0  0
 29  2  1  0  0  0
 14  9  1  0  0  0
 31 15  1  0  0  0
 21 16  1  0  0  0
 30 22  1  0  0  0
 28 23  1  0  0  0
  7 32  1  0  0  0
 35 36  1  0  0  0
 19 33  1  0  0  0
M  END
> <minimizedAffinity>
-13.13890

> <CNNscore>
0.8797060847

> <CNNaffinity>
7.0308732986

> <CNN_VS>
6.1851019859

> <CNNaffinity_variance>
0.0563527942

$$$$
[H]OC([H])([H])[C@@]1(O[H])C([H])([H])[C@@]2([H])O[C@]1(C([H])([H])[H])n1c3c([H])c([H])c([H])c([H])c3c3c4c(c5c6c([H])c([H])c([H])c([H])c6n2c5c31)C(=O)N([H])C4([H])[H]


 36 43  0  0  0  0  0  0  0  0999 V2000
   61.6191   -6.0613   -9.7276 C   0  0  0  0  0  0  0  0  0  0  0  0
   62.8250   -6.9368   -9.7487 C   0  0  0  0  0  0  0  0  0  0  0  0
   62.3770   -8.0060   -8.9245 O   0  0  0  0  0  0  0  0  0  0  0  0
   63.4293   -8.5605   -8.2802 C   0  0  0  0  0  0  0  0  0  0  0  0
   64.4030   -7.4914   -8.0222 C   0  0  0  0  0  0  0  0  0  0  0  0
   63.9931   -6.3943   -8.9794 C   0  0  0  0  0  0  0  0  0  0  0  0
   65.0962   -6.1312   -9.7776 O   0  0  0  0  0  0  0  0  0  0  0  0
   63.9642   -9.6967   -9.0418 N   0  0  0  0  0  0  0  0  0  0  0  0
   64.4295  -10.8531   -8.6020 C   0  0  0  0  0  0  0  0  0  0  0  0
   64.5383  -11.2951   -7.3089 C   0  0  0  0  0  0  0  0  0  0  0  0
   65.0638  -12.5621   -7.0868 C   0  0  0  0  0  0  0  0  0  0  0  0
   65.4633  -13.3498   -8.1358 C   0  0  0  0  0  0  0  0  0  0  0  0
   65.3534  -12.9011   -9.4574 C   0  0  0  0  0  0  0  0  0  0  0  0
   64.8359  -11.6553   -9.6640 C   0  0  0  0  0  0  0  0  0  0  0  0
   64.5922  -10.9176  -10.8003 C   0  0  0  0  0  0  0  0  0  0  0  0
   64.7877  -11.1466  -12.1501 C   0  0  0  0  0  0  0  0  0  0  0  0
   65.3065  -12.2526  -12.9346 C   0  0  0  0  0  0  0  0  0  0  0  0
   65.7416  -13.3515  -12.5867 O   0  0  0  0  0  0  0  0  0  0  0  0
   65.2434  -11.8676  -14.3115 N   0  0  0  0  0  0  0  0  0  0  0  0
   64.7040  -10.5360  -14.4439 C   0  0  0  0  0  0  0  0  0  0  0  0
   64.4331  -10.1480  -13.0380 C   0  0  0  0  0  0  0  0  0  0  0  0
   63.8927   -8.9381  -12.6165 C   0  0  0  0  0  0  0  0  0  0  0  0
   63.4797   -7.7997  -13.2340 C   0  0  0  0  0  0  0  0  0  0  0  0
   63.4649   -7.4679  -14.5691 C   0  0  0  0  0  0  0  0  0  0  0  0
   63.0019   -6.2047  -14.9489 C   0  0  0  0  0  0  0  0  0  0  0  0
   62.5743   -5.3308  -13.9655 C   0  0  0  0  0  0  0  0  0  0  0  0
   62.5992   -5.6882  -12.6286 C   0  0  0  0  0  0  0  0  0  0  0  0
   63.0491   -6.9250  -12.2332 C   0  0  0  0  0  0  0  0  0  0  0  0
   63.1873   -7.5100  -11.0133 N   0  0  0  0  0  0  0  0  0  0  0  0
   63.7144   -8.7509  -11.2871 C   0  0  0  0  0  0  0  0  0  0  0  0
   64.0567   -9.7221  -10.3720 C   0  0  0  0  0  0  0  0  0  0  0  0
   65.6303   -5.4238   -9.3425 H   0  0  0  0  0  0  0  0  0  0  0  0
   65.5394  -12.4458  -15.1438 H   0  0  0  0  0  0  0  0  0  0  0  0
   63.6793   -5.1738   -8.1823 C   0  0  0  0  0  0  0  0  0  0  0  0
   64.8814   -4.5945   -7.7746 O   0  0  0  0  0  0  0  0  0  0  0  0
   65.0383   -4.6863   -6.8006 H   0  0  0  0  0  0  0  0  0  0  0  0
  2  1  1  0  0  0
  2  3  1  0  0  0
  3  4  1  0  0  0
  4  5  1  0  0  0
  5  6  1  0  0  0
  6  7  1  0  0  0
  6 34  1  0  0  0
 34 35  1  0  0  0
  4  8  1  0  0  0
  8  9  1  0  0  0
  9 10  2  0  0  0
 10 11  1  0  0  0
 11 12  2  0  0  0
 12 13  1  0  0  0
 13 14  2  0  0  0
 14 15  1  0  0  0
 15 16  2  0  0  0
 16 17  1  0  0  0
 17 18  2  0  0  0
 17 19  1  0  0  0
 19 20  1  0  0  0
 20 21  1  0  0  0
 21 22  2  0  0  0
 22 23  1  0  0  0
 23 24  2  0  0  0
 24 25  1  0  0  0
 25 26  2  0  0  0
 26 27  1  0  0  0
 27 28  2  0  0  0
 28 29  1  0  0  0
 29 30  1  0  0  0
 30 31  2  0  0  0
  6  2  1  0  0  0
 31  8  1  0  0  0
 29  2  1  0  0  0
 14  9  1  0  0  0
 31 15  1  0  0  0
 21 16  1  0  0  0
 30 22  1  0  0  0
 28 23  1  0  0  0
  7 32  1  0  0  0
 35 36  1  0  0  0
 19 33  1  0  0  0
M  END
> <minimizedAffinity>
-2.71208

> <CNNscore>
0.6320461631

> <CNNaffinity>
4.8087005615

> <CNN_VS>
3.0393207073

> <CNNaffinity_variance>
0.5043185353

$$$$
[H]OC([H])([H])[C@@]1(O[H])C([H])([H])[C@@]2([H])O[C@]1(C([H])([H])[H])n1c3c([H])c([H])c([H])c([H])c3c3c4c(c5c6c([H])c([H])c([H])c([H])c6n2c5c31)C(=O)N([H])C4([H])[H]


 36 43  0  0  0  0  0  0  0  0999 V2000
   57.2081   -5.9139   -4.1576 C   0  0  0  0  0  0  0  0  0  0  0  0
   55.8147   -6.1850   -4.6117 C   0  0  0  0  0  0  0  0  0  0  0  0
   55.0808   -5.5556   -3.5684 O   0  0  0  0  0  0  0  0  0  0  0  0
   53.8976   -6.1878   -3.3942 C   0  0  0  0  0  0  0  0  0  0  0  0
   54.1065   -7.6093   -3.6996 C   0  0  0  0  0  0  0  0  0  0  0  0
   55.3960   -7.6204   -4.4902 C   0  0  0  0  0  0  0  0  0  0  0  0
   55.1073   -8.2089   -5.7123 O   0  0  0  0  0  0  0  0  0  0  0  0
   52.8436   -5.5453   -4.1903 N   0  0  0  0  0  0  0  0  0  0  0  0
   51.5774   -5.3270   -3.8800 C   0  0  0  0  0  0  0  0  0  0  0  0
   50.9117   -5.6496   -2.7259 C   0  0  0  0  0  0  0  0  0  0  0  0
   49.5665   -5.3165   -2.6250 C   0  0  0  0  0  0  0  0  0  0  0  0
   48.9219   -4.6807   -3.6550 C   0  0  0  0  0  0  0  0  0  0  0  0
   49.5992   -4.3500   -4.8349 C   0  0  0  0  0  0  0  0  0  0  0  0
   50.9200   -4.6818   -4.9232 C   0  0  0  0  0  0  0  0  0  0  0  0
   51.8656   -4.5126   -5.9090 C   0  0  0  0  0  0  0  0  0  0  0  0
   51.8380   -3.9609   -7.1769 C   0  0  0  0  0  0  0  0  0  0  0  0
   50.8218   -3.3169   -7.9895 C   0  0  0  0  0  0  0  0  0  0  0  0
   49.6365   -3.0765   -7.7542 O   0  0  0  0  0  0  0  0  0  0  0  0
   51.4324   -2.9565   -9.2325 N   0  0  0  0  0  0  0  0  0  0  0  0
   52.8186   -3.3561   -9.2538 C   0  0  0  0  0  0  0  0  0  0  0  0
   53.0041   -3.9770   -7.9195 C   0  0  0  0  0  0  0  0  0  0  0  0
   54.1861   -4.5240   -7.4326 C   0  0  0  0  0  0  0  0  0  0  0  0
   55.4424   -4.6953   -7.9226 C   0  0  0  0  0  0  0  0  0  0  0  0
   55.9747   -4.3516   -9.1439 C   0  0  0  0  0  0  0  0  0  0  0  0
   57.3112   -4.6613   -9.4126 C   0  0  0  0  0  0  0  0  0  0  0  0
   58.0528   -5.3046   -8.4380 C   0  0  0  0  0  0  0  0  0  0  0  0
   57.4941   -5.6400   -7.2168 C   0  0  0  0  0  0  0  0  0  0  0  0
   56.1830   -5.3439   -6.9312 C   0  0  0  0  0  0  0  0  0  0  0  0
   55.4025   -5.5691   -5.8405 N   0  0  0  0  0  0  0  0  0  0  0  0
   54.1749   -5.0534   -6.1862 C   0  0  0  0  0  0  0  0  0  0  0  0
   53.0322   -5.0569   -5.4167 C   0  0  0  0  0  0  0  0  0  0  0  0
   55.2585   -9.1812   -5.6301 H   0  0  0  0  0  0  0  0  0  0  0  0
   50.9700   -2.4667  -10.0455 H   0  0  0  0  0  0  0  0  0  0  0  0
   56.3781   -8.4789   -3.7677 C   0  0  0  0  0  0  0  0  0  0  0  0
   55.7998   -8.8929   -2.5673 O   0  0  0  0  0  0  0  0  0  0  0  0
   56.2165   -8.4665   -1.7758 H   0  0  0  0  0  0  0  0  0  0  0  0
  2  1  1  0  0  0
  2  3  1  0  0  0
  3  4  1  0  0  0
  4  5  1  0  0  0
  5  6  1  0  0  0
  6  7  1  0  0  0
  6 34  1  0  0  0
 34 35  1  0  0  0
  4  8  1  0  0  0
  8  9  1  0  0  0
  9 10  2  0  0  0
 10 11  1  0  0  0
 11 12  2  0  0  0
 12 13  1  0  0  0
 13 14  2  0  0  0
 14 15  1  0  0  0
 15 16  2  0  0  0
 16 17  1  0  0  0
 17 18  2  0  0  0
 17 19  1  0  0  0
 19 20  1  0  0  0
 20 21  1  0  0  0
 21 22  2  0  0  0
 22 23  1  0  0  0
 23 24  2  0  0  0
 24 25  1  0  0  0
 25 26  2  0  0  0
 26 27  1  0  0  0
 27 28  2  0  0  0
 28 29  1  0  0  0
 29 30  1  0  0  0
 30 31  2  0  0  0
  6  2  1  0  0  0
 31  8  1  0  0  0
 29  2  1  0  0  0
 14  9  1  0  0  0
 31 15  1  0  0  0
 21 16  1  0  0  0
 30 22  1  0  0  0
 28 23  1  0  0  0
  7 32  1  0  0  0
 35 36  1  0  0  0
 19 33  1  0  0  0
M  END
> <minimizedAffinity>
-9.91533

> <CNNscore>
0.4059527218

> <CNNaffinity>
6.4354257584

> <CNN_VS>
2.6124784946

> <CNNaffinity_variance>
0.0992594436

$$$$
[H]OC([H])([H])[C@@]1(O[H])C([H])([H])[C@@]2([H])O[C@]1(C([H])([H])[H])n1c3c([H])c([H])c([H])c([H])c3c3c4c(c5c6c([H])c([H])c([H])c([H])c6n2c5c31)C(=O)N([H])C4([H])[H]


 36 43  0  0  0  0  0  0  0  0999 V2000
   52.9566   -4.2282  -10.7033 C   0  0  0  0  0  0  0  0  0  0  0  0
   53.9481   -4.0587   -9.6036 C   0  0  0  0  0  0  0  0  0  0  0  0
   53.5178   -5.0814   -8.7138 O   0  0  0  0  0  0  0  0  0  0  0  0
   53.7989   -4.7281   -7.4386 C   0  0  0  0  0  0  0  0  0  0  0  0
   53.6849   -3.2664   -7.3494 C   0  0  0  0  0  0  0  0  0  0  0  0
   53.7585   -2.8124   -8.7904 C   0  0  0  0  0  0  0  0  0  0  0  0
   54.8307   -1.9372   -8.8767 O   0  0  0  0  0  0  0  0  0  0  0  0
   55.1049   -5.2604   -7.0284 N   0  0  0  0  0  0  0  0  0  0  0  0
   55.4747   -5.7609   -5.8621 C   0  0  0  0  0  0  0  0  0  0  0  0
   54.7301   -5.9111   -4.7211 C   0  0  0  0  0  0  0  0  0  0  0  0
   55.3398   -6.4690   -3.6041 C   0  0  0  0  0  0  0  0  0  0  0  0
   56.6538   -6.8593   -3.6434 C   0  0  0  0  0  0  0  0  0  0  0  0
   57.4168   -6.7072   -4.8074 C   0  0  0  0  0  0  0  0  0  0  0  0
   56.8080   -6.1581   -5.8984 C   0  0  0  0  0  0  0  0  0  0  0  0
   57.2463   -5.8697   -7.1709 C   0  0  0  0  0  0  0  0  0  0  0  0
   58.4591   -6.0111   -7.8203 C   0  0  0  0  0  0  0  0  0  0  0  0
   59.7620   -6.5339   -7.4501 C   0  0  0  0  0  0  0  0  0  0  0  0
   60.1627   -7.0197   -6.3911 O   0  0  0  0  0  0  0  0  0  0  0  0
   60.6164   -6.4012   -8.5903 N   0  0  0  0  0  0  0  0  0  0  0  0
   59.9060   -5.7982   -9.6918 C   0  0  0  0  0  0  0  0  0  0  0  0
   58.5482   -5.5867   -9.1330 C   0  0  0  0  0  0  0  0  0  0  0  0
   57.4670   -5.0305   -9.8079 C   0  0  0  0  0  0  0  0  0  0  0  0
   57.2659   -4.5218  -11.0523 C   0  0  0  0  0  0  0  0  0  0  0  0
   58.1351   -4.3924  -12.1109 C   0  0  0  0  0  0  0  0  0  0  0  0
   57.6785   -3.8073  -13.2956 C   0  0  0  0  0  0  0  0  0  0  0  0
   56.3652   -3.3778  -13.3611 C   0  0  0  0  0  0  0  0  0  0  0  0
   55.5101   -3.5192  -12.2819 C   0  0  0  0  0  0  0  0  0  0  0  0
   55.9375   -4.0924  -11.1084 C   0  0  0  0  0  0  0  0  0  0  0  0
   55.3204   -4.3335   -9.9208 N   0  0  0  0  0  0  0  0  0  0  0  0
   56.2953   -4.9098   -9.1398 C   0  0  0  0  0  0  0  0  0  0  0  0
   56.1682   -5.3203   -7.8309 C   0  0  0  0  0  0  0  0  0  0  0  0
   54.4982   -1.0237   -8.7036 H   0  0  0  0  0  0  0  0  0  0  0  0
   61.6295   -6.6907   -8.6583 H   0  0  0  0  0  0  0  0  0  0  0  0
   52.5071   -2.0663   -9.1082 C   0  0  0  0  0  0  0  0  0  0  0  0
   51.5158   -2.4699   -8.2131 O   0  0  0  0  0  0  0  0  0  0  0  0
   50.8097   -3.0141   -8.6456 H   0  0  0  0  0  0  0  0  0  0  0  0
  2  1  1  0  0  0
  2  3  1  0  0  0
  3  4  1  0  0  0
  4  5  1  0  0  0
  5  6  1  0  0  0
  6  7  1  0  0  0
  6 34  1  0  0  0
 34 35  1  0  0  0
  4  8  1  0  0  0
  8  9  1  0  0  0
  9 10  2  0  0  0
 10 11  1  0  0  0
 11 12  2  0  0  0
 12 13  1  0  0  0
 13 14  2  0  0  0
 14 15  1  0  0  0
 15 16  2  0  0  0
 16 17  1  0  0  0
 17 18  2  0  0  0
 17 19  1  0  0  0
 19 20  1  0  0  0
 20 21  1  0  0  0
 21 22  2  0  0  0
 22 23  1  0  0  0
 23 24  2  0  0  0
 24 25  1  0  0  0
 25 26  2  0  0  0
 26 27  1  0  0  0
 27 28  2  0  0  0
 28 29  1  0  0  0
 29 30  1  0  0  0
 30 31  2  0  0  0
  6  2  1  0  0  0
 31  8  1  0  0  0
 29  2  1  0  0  0
 14  9  1  0  0  0
 31 15  1  0  0  0
 21 16  1  0  0  0
 30 22  1  0  0  0
 28 23  1  0  0  0
  7 32  1  0  0  0
 35 36  1  0  0  0
 19 33  1  0  0  0
M  END
> <minimizedAffinity>
-3.13274

> <CNNscore>
0.4058468938

> <CNNaffinity>
6.0742416382

> <CNN_VS>
2.4652121067

> <CNNaffinity_variance>
0.1501375139

$$$$
[H]OC([H])([H])[C@@]1(O[H])C([H])([H])[C@@]2([H])O[C@]1(C([H])([H])[H])n1c3c([H])c([H])c([H])c([H])c3c3c4c(c5c6c([H])c([H])c([H])c([H])c6n2c5c31)C(=O)N([H])C4([H])[H]


 36 43  0  0  0  0  0  0  0  0999 V2000
   55.9637   -2.3120  -11.8150 C   0  0  0  0  0  0  0  0  0  0  0  0
   56.3970   -3.6216  -11.2508 C   0  0  0  0  0  0  0  0  0  0  0  0
   57.7817   -3.3659  -11.0501 O   0  0  0  0  0  0  0  0  0  0  0  0
   58.4830   -4.5162  -11.1729 C   0  0  0  0  0  0  0  0  0  0  0  0
   57.7941   -5.3500  -12.1668 C   0  0  0  0  0  0  0  0  0  0  0  0
   56.4096   -4.7459  -12.2440 C   0  0  0  0  0  0  0  0  0  0  0  0
   55.5162   -5.7593  -11.9310 O   0  0  0  0  0  0  0  0  0  0  0  0
   58.6624   -5.1571   -9.8637 N   0  0  0  0  0  0  0  0  0  0  0  0
   59.7149   -5.7963   -9.3830 C   0  0  0  0  0  0  0  0  0  0  0  0
   60.9220   -6.0326   -9.9882 C   0  0  0  0  0  0  0  0  0  0  0  0
   61.8892   -6.7345   -9.2794 C   0  0  0  0  0  0  0  0  0  0  0  0
   61.6414   -7.1793   -8.0061 C   0  0  0  0  0  0  0  0  0  0  0  0
   60.4095   -6.9395   -7.3854 C   0  0  0  0  0  0  0  0  0  0  0  0
   59.4669   -6.2492   -8.0907 C   0  0  0  0  0  0  0  0  0  0  0  0
   58.1833   -5.8481   -7.7972 C   0  0  0  0  0  0  0  0  0  0  0  0
   57.3617   -5.9999   -6.6951 C   0  0  0  0  0  0  0  0  0  0  0  0
   57.5061   -6.6196   -5.3902 C   0  0  0  0  0  0  0  0  0  0  0  0
   58.4576   -7.2162   -4.8836 O   0  0  0  0  0  0  0  0  0  0  0  0
   56.2733   -6.4317   -4.6882 N   0  0  0  0  0  0  0  0  0  0  0  0
   55.3265   -5.7122   -5.5051 C   0  0  0  0  0  0  0  0  0  0  0  0
   56.0873   -5.4674   -6.7548 C   0  0  0  0  0  0  0  0  0  0  0  0
   55.6168   -4.7929   -7.8761 C   0  0  0  0  0  0  0  0  0  0  0  0
   54.4443   -4.1984   -8.2218 C   0  0  0  0  0  0  0  0  0  0  0  0
   53.2715   -4.0677   -7.5144 C   0  0  0  0  0  0  0  0  0  0  0  0
   52.1871   -3.4196   -8.1130 C   0  0  0  0  0  0  0  0  0  0  0  0
   52.3324   -2.9320   -9.3994 C   0  0  0  0  0  0  0  0  0  0  0  0
   53.5229   -3.0762  -10.0905 C   0  0  0  0  0  0  0  0  0  0  0  0
   54.6018   -3.7086   -9.5208 C   0  0  0  0  0  0  0  0  0  0  0  0
   55.8526   -3.9893   -9.9751 N   0  0  0  0  0  0  0  0  0  0  0  0
   56.4507   -4.6627   -8.9352 C   0  0  0  0  0  0  0  0  0  0  0  0
   57.7270   -5.1807   -8.9135 C   0  0  0  0  0  0  0  0  0  0  0  0
   55.2619   -6.2162  -12.7686 H   0  0  0  0  0  0  0  0  0  0  0  0
   56.0468   -6.7576   -3.7098 H   0  0  0  0  0  0  0  0  0  0  0  0
   56.1674   -4.3143  -13.6507 C   0  0  0  0  0  0  0  0  0  0  0  0
   56.3498   -5.4170  -14.4859 O   0  0  0  0  0  0  0  0  0  0  0  0
   57.1671   -5.3440  -15.0414 H   0  0  0  0  0  0  0  0  0  0  0  0
  2  1  1  0  0  0
  2  3  1  0  0  0
  3  4  1  0  0  0
  4  5  1  0  0  0
  5  6  1  0  0  0
  6  7  1  0  0  0
  6 34  1  0  0  0
 34 35  1  0  0  0
  4  8  1  0  0  0
  8  9  1  0  0  0
  9 10  2  0  0  0
 10 11  1  0  0  0
 11 12  2  0  0  0
 12 13  1  0  0  0
 13 14  2  0  0  0
 14 15  1  0  0  0
 15 16  2  0  0  0
 16 17  1  0  0  0
 17 18  2  0  0  0
 17 19  1  0  0  0
 19 20  1  0  0  0
 20 21  1  0  0  0
 21 22  2  0  0  0
 22 23  1  0  0  0
 23 24  2  0  0  0
 24 25  1  0  0  0
 25 26  2  0  0  0
 26 27  1  0  0  0
 27 28  2  0  0  0
 28 29  1  0  0  0
 29 30  1  0  0  0
 30 31  2  0  0  0
  6  2  1  0  0  0
 31  8  1  0  0  0
 29  2  1  0  0  0
 14  9  1  0  0  0
 31 15  1  0  0  0
 21 16  1  0  0  0
 30 22  1  0  0  0
 28 23  1  0  0  0
  7 32  1  0  0  0
 35 36  1  0  0  0
 19 33  1  0  0  0
M  END
> <minimizedAffinity>
2.74209

> <CNNscore>
0.3512608707

> <CNNaffinity>
5.9160537720

> <CNN_VS>
2.0780782700

> <CNNaffinity_variance>
0.3250520229

$$$$
[H]OC([H])([H])[C@@]1(O[H])C([H])([H])[C@@]2([H])O[C@]1(C([H])([H])[H])n1c3c([H])c([H])c([H])c([H])c3c3c4c(c5c6c([H])c([H])c([H])c([H])c6n2c5c31)C(=O)N([H])C4([H])[H]


 36 43  0  0  0  0  0  0  0  0999 V2000
   61.2432   -4.5307  -16.2301 C   0  0  0  0  0  0  0  0  0  0  0  0
   61.1313   -4.2188  -14.7771 C   0  0  0  0  0  0  0  0  0  0  0  0
   59.7807   -4.5965  -14.5396 O   0  0  0  0  0  0  0  0  0  0  0  0
   59.2621   -3.8427  -13.5432 C   0  0  0  0  0  0  0  0  0  0  0  0
   59.8899   -2.5168  -13.6192 C   0  0  0  0  0  0  0  0  0  0  0  0
   61.1243   -2.7524  -14.4610 C   0  0  0  0  0  0  0  0  0  0  0  0
   62.2094   -2.3552  -13.6942 O   0  0  0  0  0  0  0  0  0  0  0  0
   59.4208   -4.5151  -12.2471 N   0  0  0  0  0  0  0  0  0  0  0  0
   58.5855   -4.5660  -11.2239 C   0  0  0  0  0  0  0  0  0  0  0  0
   57.3444   -3.9964  -11.1039 C   0  0  0  0  0  0  0  0  0  0  0  0
   56.6421   -4.1884   -9.9204 C   0  0  0  0  0  0  0  0  0  0  0  0
   57.1780   -4.9296   -8.8987 C   0  0  0  0  0  0  0  0  0  0  0  0
   58.4453   -5.5126   -9.0185 C   0  0  0  0  0  0  0  0  0  0  0  0
   59.1262   -5.3176  -10.1850 C   0  0  0  0  0  0  0  0  0  0  0  0
   60.3604   -5.7328  -10.6311 C   0  0  0  0  0  0  0  0  0  0  0  0
   61.3766   -6.4857  -10.0715 C   0  0  0  0  0  0  0  0  0  0  0  0
   61.5652   -7.1657   -8.8027 C   0  0  0  0  0  0  0  0  0  0  0  0
   60.8257   -7.2582   -7.8217 O   0  0  0  0  0  0  0  0  0  0  0  0
   62.8561   -7.7827   -8.8353 N   0  0  0  0  0  0  0  0  0  0  0  0
   63.5168   -7.5156  -10.0898 C   0  0  0  0  0  0  0  0  0  0  0  0
   62.5187   -6.6974  -10.8213 C   0  0  0  0  0  0  0  0  0  0  0  0
   62.6703   -6.1820  -12.1038 C   0  0  0  0  0  0  0  0  0  0  0  0
   63.6532   -6.2067  -13.0425 C   0  0  0  0  0  0  0  0  0  0  0  0
   64.8958   -6.7966  -13.0131 C   0  0  0  0  0  0  0  0  0  0  0  0
   65.7400   -6.6551  -14.1184 C   0  0  0  0  0  0  0  0  0  0  0  0
   65.2945   -5.9243  -15.2052 C   0  0  0  0  0  0  0  0  0  0  0  0
   64.0397   -5.3403  -15.2104 C   0  0  0  0  0  0  0  0  0  0  0  0
   63.1932   -5.4678  -14.1355 C   0  0  0  0  0  0  0  0  0  0  0  0
   61.9434   -4.9944  -13.8837 N   0  0  0  0  0  0  0  0  0  0  0  0
   61.6532   -5.4512  -12.6189 C   0  0  0  0  0  0  0  0  0  0  0  0
   60.5003   -5.2178  -11.9018 C   0  0  0  0  0  0  0  0  0  0  0  0
   62.3822   -1.4000  -13.8752 H   0  0  0  0  0  0  0  0  0  0  0  0
   63.3003   -8.3600   -8.0711 H   0  0  0  0  0  0  0  0  0  0  0  0
   61.0429   -1.8739  -15.6632 C   0  0  0  0  0  0  0  0  0  0  0  0
   59.7028   -1.7616  -16.0351 O   0  0  0  0  0  0  0  0  0  0  0  0
   59.5002   -2.2372  -16.8805 H   0  0  0  0  0  0  0  0  0  0  0  0
  2  1  1  0  0  0
  2  3  1  0  0  0
  3  4  1  0  0  0
  4  5  1  0  0  0
  5  6  1  0  0  0
  6  7  1  0  0  0
  6 34  1  0  0  0
 34 35  1  0  0  0
  4  8  1  0  0  0
  8  9  1  0  0  0
  9 10  2  0  0  0
 10 11  1  0  0  0
 11 12  2  0  0  0
 12 13  1  0  0  0
 13 14  2  0  0  0
 14 15  1  0  0  0
 15 16  2  0  0  0
 16 17  1  0  0  0
 17 18  2  0  0  0
 17 19  1  0  0  0
 19 20  1  0  0  0
 20 21  1  0  0  0
 21 22  2  0  0  0
 22 23  1  0  0  0
 23 24  2  0  0  0
 24 25  1  0  0  0
 25 26  2  0  0  0
 26 27  1  0  0  0
 27 28  2  0  0  0
 28 29  1  0  0  0
 29 30  1  0  0  0
 30 31  2  0  0  0
  6  2  1  0  0  0
 31  8  1  0  0  0
 29  2  1  0  0  0
 14  9  1  0  0  0
 31 15  1  0  0  0
 21 16  1  0  0  0
 30 22  1  0  0  0
 28 23  1  0  0  0
  7 32  1  0  0  0
 35 36  1  0  0  0
 19 33  1  0  0  0
M  END
> <minimizedAffinity>
0.70452

> <CNNscore>
0.3013141751

> <CNNaffinity>
4.6180534363

> <CNN_VS>
1.3914849758

> <CNNaffinity_variance>
0.5053692460

$$$$
[H]OC([H])([H])[C@@]1(O[H])C([H])([H])[C@@]2([H])O[C@]1(C([H])([H])[H])n1c3c([H])c([H])c([H])c([H])c3c3c4c(c5c6c([H])c([H])c([H])c([H])c6n2c5c31)C(=O)N([H])C4([H])[H]


 36 43  0  0  0  0  0  0  0  0999 V2000
   59.0731   -4.2782  -17.3362 C   0  0  0  0  0  0  0  0  0  0  0  0
   59.3245   -3.8761  -15.9233 C   0  0  0  0  0  0  0  0  0  0  0  0
   58.2502   -4.5450  -15.2741 O   0  0  0  0  0  0  0  0  0  0  0  0
   57.8782   -3.8536  -14.1725 C   0  0  0  0  0  0  0  0  0  0  0  0
   58.0936   -2.4277  -14.4518 C   0  0  0  0  0  0  0  0  0  0  0  0
   59.0374   -2.4324  -15.6338 C   0  0  0  0  0  0  0  0  0  0  0  0
   60.1626   -1.7204  -15.2462 O   0  0  0  0  0  0  0  0  0  0  0  0
   58.5832   -4.3518  -12.9842 N   0  0  0  0  0  0  0  0  0  0  0  0
   58.1337   -4.5121  -11.7515 C   0  0  0  0  0  0  0  0  0  0  0  0
   56.8828   -4.2493  -11.2563 C   0  0  0  0  0  0  0  0  0  0  0  0
   56.6396   -4.4999   -9.9114 C   0  0  0  0  0  0  0  0  0  0  0  0
   57.6270   -4.9980   -9.1006 C   0  0  0  0  0  0  0  0  0  0  0  0
   58.9056   -5.2674   -9.6036 C   0  0  0  0  0  0  0  0  0  0  0  0
   59.1334   -5.0175  -10.9258 C   0  0  0  0  0  0  0  0  0  0  0  0
   60.2411   -5.1614  -11.7301 C   0  0  0  0  0  0  0  0  0  0  0  0
   61.5352   -5.5959  -11.5079 C   0  0  0  0  0  0  0  0  0  0  0  0
   62.2614   -6.0966  -10.3548 C   0  0  0  0  0  0  0  0  0  0  0  0
   61.8981   -6.2777   -9.1915 O   0  0  0  0  0  0  0  0  0  0  0  0
   63.5963   -6.3856  -10.7819 N   0  0  0  0  0  0  0  0  0  0  0  0
   63.7608   -6.0786  -12.1820 C   0  0  0  0  0  0  0  0  0  0  0  0
   62.4155   -5.5917  -12.5738 C   0  0  0  0  0  0  0  0  0  0  0  0
   62.0400   -5.1695  -13.8444 C   0  0  0  0  0  0  0  0  0  0  0  0
   62.6697   -5.0394  -15.0420 C   0  0  0  0  0  0  0  0  0  0  0  0
   63.9719   -5.3084  -15.3955 C   0  0  0  0  0  0  0  0  0  0  0  0
   64.3818   -5.0656  -16.7098 C   0  0  0  0  0  0  0  0  0  0  0  0
   63.4607   -4.5616  -17.6104 C   0  0  0  0  0  0  0  0  0  0  0  0
   62.1560   -4.2991  -17.2302 C   0  0  0  0  0  0  0  0  0  0  0  0
   61.7313   -4.5315  -15.9441 C   0  0  0  0  0  0  0  0  0  0  0  0
   60.5364   -4.3523  -15.3202 N   0  0  0  0  0  0  0  0  0  0  0  0
   60.7641   -4.7527  -14.0239 C   0  0  0  0  0  0  0  0  0  0  0  0
   59.8586   -4.7414  -12.9858 C   0  0  0  0  0  0  0  0  0  0  0  0
   60.0231   -0.7713  -15.4804 H   0  0  0  0  0  0  0  0  0  0  0  0
   64.3807   -6.7699  -10.1887 H   0  0  0  0  0  0  0  0  0  0  0  0
   58.3789   -1.7082  -16.7587 C   0  0  0  0  0  0  0  0  0  0  0  0
   59.3301   -0.8925  -17.3724 O   0  0  0  0  0  0  0  0  0  0  0  0
   59.1711    0.0712  -17.2057 H   0  0  0  0  0  0  0  0  0  0  0  0
  2  1  1  0  0  0
  2  3  1  0  0  0
  3  4  1  0  0  0
  4  5  1  0  0  0
  5  6  1  0  0  0
  6  7  1  0  0  0
  6 34  1  0  0  0
 34 35  1  0  0  0
  4  8  1  0  0  0
  8  9  1  0  0  0
  9 10  2  0  0  0
 10 11  1  0  0  0
 11 12  2  0  0  0
 12 13  1  0  0  0
 13 14  2  0  0  0
 14 15  1  0  0  0
 15 16  2  0  0  0
 16 17  1  0  0  0
 17 18  2  0  0  0
 17 19  1  0  0  0
 19 20  1  0  0  0
 20 21  1  0  0  0
 21 22  2  0  0  0
 22 23  1  0  0  0
 23 24  2  0  0  0
 24 25  1  0  0  0
 25 26  2  0  0  0
 26 27  1  0  0  0
 27 28  2  0  0  0
 28 29  1  0  0  0
 29 30  1  0  0  0
 30 31  2  0  0  0
  6  2  1  0  0  0
 31  8  1  0  0  0
 29  2  1  0  0  0
 14  9  1  0  0  0
 31 15  1  0  0  0
 21 16  1  0  0  0
 30 22  1  0  0  0
 28 23  1  0  0  0
  7 32  1  0  0  0
 35 36  1  0  0  0
 19 33  1  0  0  0
M  END
> <minimizedAffinity>
5.19974

> <CNNscore>
0.2948720455

> <CNNaffinity>
4.6382708549

> <CNN_VS>
1.3676964045

> <CNNaffinity_variance>
0.6070107222

$$$$
[H]OC([H])([H])[C@@]1(O[H])C([H])([H])[C@@]2([H])O[C@]1(C([H])([H])[H])n1c3c([H])c([H])c([H])c([H])c3c3c4c(c5c6c([H])c([H])c([H])c([H])c6n2c5c31)C(=O)N([H])C4([H])[H]


 36 43  0  0  0  0  0  0  0  0999 V2000
   58.1290   -4.7807  -14.2509 C   0  0  0  0  0  0  0  0  0  0  0  0
   58.3685   -4.4639  -12.8144 C   0  0  0  0  0  0  0  0  0  0  0  0
   57.3281   -5.2226  -12.2102 O   0  0  0  0  0  0  0  0  0  0  0  0
   56.9305   -4.6243  -11.0639 C   0  0  0  0  0  0  0  0  0  0  0  0
   57.0807   -3.1746  -11.2466 C   0  0  0  0  0  0  0  0  0  0  0  0
   58.0185   -3.0573  -12.4276 C   0  0  0  0  0  0  0  0  0  0  0  0
   59.1124   -2.3232  -11.9945 O   0  0  0  0  0  0  0  0  0  0  0  0
   57.6624   -5.1693   -9.9130 N   0  0  0  0  0  0  0  0  0  0  0  0
   57.2261   -5.4324   -8.6933 C   0  0  0  0  0  0  0  0  0  0  0  0
   55.9670   -5.2599   -8.1796 C   0  0  0  0  0  0  0  0  0  0  0  0
   55.7412   -5.6113   -6.8544 C   0  0  0  0  0  0  0  0  0  0  0  0
   56.7537   -6.1180   -6.0806 C   0  0  0  0  0  0  0  0  0  0  0  0
   58.0407   -6.2953   -6.6025 C   0  0  0  0  0  0  0  0  0  0  0  0
   58.2512   -5.9469   -7.9051 C   0  0  0  0  0  0  0  0  0  0  0  0
   59.3605   -5.9863   -8.7189 C   0  0  0  0  0  0  0  0  0  0  0  0
   60.6737   -6.3762   -8.5284 C   0  0  0  0  0  0  0  0  0  0  0  0
   61.4268   -6.9205   -7.4129 C   0  0  0  0  0  0  0  0  0  0  0  0
   61.0772   -7.1957   -6.2640 O   0  0  0  0  0  0  0  0  0  0  0  0
   62.7714   -7.1197   -7.8606 N   0  0  0  0  0  0  0  0  0  0  0  0
   62.9157   -6.7120   -9.2369 C   0  0  0  0  0  0  0  0  0  0  0  0
   61.5481   -6.2608   -9.5930 C   0  0  0  0  0  0  0  0  0  0  0  0
   61.1485   -5.7712  -10.8316 C   0  0  0  0  0  0  0  0  0  0  0  0
   61.7663   -5.5325  -12.0187 C   0  0  0  0  0  0  0  0  0  0  0  0
   63.0776   -5.7183  -12.3914 C   0  0  0  0  0  0  0  0  0  0  0  0
   63.4703   -5.3693  -13.6869 C   0  0  0  0  0  0  0  0  0  0  0  0
   62.5235   -4.8477  -14.5501 C   0  0  0  0  0  0  0  0  0  0  0  0
   61.2101   -4.6702  -14.1511 C   0  0  0  0  0  0  0  0  0  0  0  0
   60.8021   -5.0076  -12.8830 C   0  0  0  0  0  0  0  0  0  0  0  0
   59.6031   -4.9247  -12.2466 N   0  0  0  0  0  0  0  0  0  0  0  0
   59.8544   -5.4009  -10.9807 C   0  0  0  0  0  0  0  0  0  0  0  0
   58.9539   -5.5003   -9.9428 C   0  0  0  0  0  0  0  0  0  0  0  0
   58.9296   -1.3678  -12.1639 H   0  0  0  0  0  0  0  0  0  0  0  0
   63.5748   -7.5075   -7.2958 H   0  0  0  0  0  0  0  0  0  0  0  0
   57.3232   -2.2892  -13.5001 C   0  0  0  0  0  0  0  0  0  0  0  0
   56.0153   -2.7643  -13.6028 O   0  0  0  0  0  0  0  0  0  0  0  0
   55.8584   -3.2727  -14.4388 H   0  0  0  0  0  0  0  0  0  0  0  0
  2  1  1  0  0  0
  2  3  1  0  0  0
  3  4  1  0  0  0
  4  5  1  0  0  0
  5  6  1  0  0  0
  6  7  1  0  0  0
  6 34  1  0  0  0
 34 35  1  0  0  0
  4  8  1  0  0  0
  8  9  1  0  0  0
  9 10  2  0  0  0
 10 11  1  0  0  0
 11 12  2  0  0  0
 12 13  1  0  0  0
 13 14  2  0  0  0
 14 15  1  0  0  0
 15 16  2  0  0  0
 16 17  1  0  0  0
 17 18  2  0  0  0
 17 19  1  0  0  0
 19 20  1  0  0  0
 20 21  1  0  0  0
 21 22  2  0  0  0
 22 23  1  0  0  0
 23 24  2  0  0  0
 24 25  1  0  0  0
 25 26  2  0  0  0
 26 27  1  0  0  0
 27 28  2  0  0  0
 28 29  1  0  0  0
 29 30  1  0  0  0
 30 31  2  0  0  0
  6  2  1  0  0  0
 31  8  1  0  0  0
 29  2  1  0  0  0
 14  9  1  0  0  0
 31 15  1  0  0  0
 21 16  1  0  0  0
 30 22  1  0  0  0
 28 23  1  0  0  0
  7 32  1  0  0  0
 35 36  1  0  0  0
 19 33  1  0  0  0
M  END
> <minimizedAffinity>
10.76409

> <CNNscore>
0.2940688431

> <CNNaffinity>
5.0710725784

> <CNN_VS>
1.4912444353

> <CNNaffinity_variance>
0.1874392480

$$$$
[H]OC([H])([H])[C@@]1(O[H])C([H])([H])[C@@]2([H])O[C@]1(C([H])([H])[H])n1c3c([H])c([H])c([H])c([H])c3c3c4c(c5c6c([H])c([H])c([H])c([H])c6n2c5c31)C(=O)N([H])C4([H])[H]


 36 43  0  0  0  0  0  0  0  0999 V2000
   62.9247  -10.0727   -5.7388 C   0  0  0  0  0  0  0  0  0  0  0  0
   62.0702   -9.0994   -5.0016 C   0  0  0  0  0  0  0  0  0  0  0  0
   61.0471   -8.8792   -5.9648 O   0  0  0  0  0  0  0  0  0  0  0  0
   60.5518   -7.6275   -5.8299 C   0  0  0  0  0  0  0  0  0  0  0  0
   61.6513   -6.7629   -5.3813 C   0  0  0  0  0  0  0  0  0  0  0  0
   62.6794   -7.7369   -4.8499 C   0  0  0  0  0  0  0  0  0  0  0  0
   62.9109   -7.3877   -3.5279 O   0  0  0  0  0  0  0  0  0  0  0  0
   59.3796   -7.6257   -4.9451 N   0  0  0  0  0  0  0  0  0  0  0  0
   58.2609   -6.9281   -5.0409 C   0  0  0  0  0  0  0  0  0  0  0  0
   57.9023   -6.0140   -5.9975 C   0  0  0  0  0  0  0  0  0  0  0  0
   56.6608   -5.3994   -5.8901 C   0  0  0  0  0  0  0  0  0  0  0  0
   55.8160   -5.7006   -4.8528 C   0  0  0  0  0  0  0  0  0  0  0  0
   56.1795   -6.6338   -3.8744 C   0  0  0  0  0  0  0  0  0  0  0  0
   57.4010   -7.2313   -3.9896 C   0  0  0  0  0  0  0  0  0  0  0  0
   58.0621   -8.1684   -3.2284 C   0  0  0  0  0  0  0  0  0  0  0  0
   57.7527   -8.8456   -2.0629 C   0  0  0  0  0  0  0  0  0  0  0  0
   56.6089   -8.8721   -1.1691 C   0  0  0  0  0  0  0  0  0  0  0  0
   55.5414   -8.2584   -1.2100 O   0  0  0  0  0  0  0  0  0  0  0  0
   56.9061   -9.7999   -0.1208 N   0  0  0  0  0  0  0  0  0  0  0  0
   58.2175  -10.3728   -0.3043 C   0  0  0  0  0  0  0  0  0  0  0  0
   58.6878   -9.7279   -1.5546 C   0  0  0  0  0  0  0  0  0  0  0  0
   59.9124   -9.9499   -2.1750 C   0  0  0  0  0  0  0  0  0  0  0  0
   61.0028  -10.7165   -1.9087 C   0  0  0  0  0  0  0  0  0  0  0  0
   61.2503  -11.5778   -0.8647 C   0  0  0  0  0  0  0  0  0  0  0  0
   62.4793  -12.2418   -0.8102 C   0  0  0  0  0  0  0  0  0  0  0  0
   63.4056  -12.0079   -1.8107 C   0  0  0  0  0  0  0  0  0  0  0  0
   63.1327  -11.1363   -2.8507 C   0  0  0  0  0  0  0  0  0  0  0  0
   61.9308  -10.4742   -2.9247 C   0  0  0  0  0  0  0  0  0  0  0  0
   61.4254   -9.5752   -3.8112 N   0  0  0  0  0  0  0  0  0  0  0  0
   60.1790   -9.2699   -3.3154 C   0  0  0  0  0  0  0  0  0  0  0  0
   59.2728   -8.3816   -3.8516 C   0  0  0  0  0  0  0  0  0  0  0  0
   63.6530   -6.7368   -3.5060 H   0  0  0  0  0  0  0  0  0  0  0  0
   56.2822  -10.0577    0.6910 H   0  0  0  0  0  0  0  0  0  0  0  0
   63.9418   -7.5485   -5.6209 C   0  0  0  0  0  0  0  0  0  0  0  0
   64.9992   -7.4529   -4.7156 O   0  0  0  0  0  0  0  0  0  0  0  0
   65.3792   -6.5391   -4.6677 H   0  0  0  0  0  0  0  0  0  0  0  0
  2  1  1  0  0  0
  2  3  1  0  0  0
  3  4  1  0  0  0
  4  5  1  0  0  0
  5  6  1  0  0  0
  6  7  1  0  0  0
  6 34  1  0  0  0
 34 35  1  0  0  0
  4  8  1  0  0  0
  8  9  1  0  0  0
  9 10  2  0  0  0
 10 11  1  0  0  0
 11 12  2  0  0  0
 12 13  1  0  0  0
 13 14  2  0  0  0
 14 15  1  0  0  0
 15 16  2  0  0  0
 16 17  1  0  0  0
 17 18  2  0  0  0
 17 19  1  0  0  0
 19 20  1  0  0  0
 20 21  1  0  0  0
 21 22  2  0  0  0
 22 23  1  0  0  0
 23 24  2  0  0  0
 24 25  1  0  0  0
 25 26  2  0  0  0
 26 27  1  0  0  0
 27 28  2  0  0  0
 28 29  1  0  0  0
 29 30  1  0  0  0
 30 31  2  0  0  0
  6  2  1  0  0  0
 31  8  1  0  0  0
 29  2  1  0  0  0
 14  9  1  0  0  0
 31 15  1  0  0  0
 21 16  1  0  0  0
 30 22  1  0  0  0
 28 23  1  0  0  0
  7 32  1  0  0  0
 35 36  1  0  0  0
 19 33  1  0  0  0
M  END
> <minimizedAffinity>
2.82897

> <CNNscore>
0.2705294192

> <CNNaffinity>
4.9992237091

> <CNN_VS>
1.3524371386

> <CNNaffinity_variance>
0.4699259698

$$$$
[H]c1c([H])c([H])c2c(c1[H])c1c3c(c4c5c([H])c([H])c([H])c([H])c5n5c4c1n2[C@]1([H])O[C@]5(C([H])([H])[H])[C@]([H])(OC([H])([H])[H])[C@@]([H])(N([H])C([H])([H])[H])C1([H])[H])C([H])([H])N([H])C3=O


 37 44  0  0  0  0  0  0  0  0999 V2000
   56.1659   -7.3965   -2.8555 C   0  0  0  0  0  0  0  0  0  0  0  0
   56.8742   -6.7191   -4.0743 C   0  0  0  0  0  0  0  0  0  0  0  0
   55.8189   -6.0793   -4.6760 C   0  0  0  0  0  0  0  0  0  0  0  0
   55.3626   -5.2004   -3.6981 O   0  0  0  0  0  0  0  0  0  0  0  0
   54.2009   -5.8165   -3.1345 C   0  0  0  0  0  0  0  0  0  0  0  0
   54.0434   -4.9850   -1.8378 C   0  0  0  0  0  0  0  0  0  0  0  0
   54.6263   -7.1792   -2.8839 C   0  0  0  0  0  0  0  0  0  0  0  0
   53.1469   -5.4684   -4.0644 N   0  0  0  0  0  0  0  0  0  0  0  0
   51.8380   -5.3019   -3.7473 C   0  0  0  0  0  0  0  0  0  0  0  0
   51.1367   -5.5256   -2.5973 C   0  0  0  0  0  0  0  0  0  0  0  0
   49.7720   -5.2742   -2.5383 C   0  0  0  0  0  0  0  0  0  0  0  0
   49.0686   -4.7869   -3.6445 C   0  0  0  0  0  0  0  0  0  0  0  0
   49.7680   -4.5586   -4.8108 C   0  0  0  0  0  0  0  0  0  0  0  0
   51.1212   -4.8196   -4.8321 C   0  0  0  0  0  0  0  0  0  0  0  0
   51.9948   -4.6853   -5.8493 C   0  0  0  0  0  0  0  0  0  0  0  0
   51.9523   -4.2269   -7.1749 C   0  0  0  0  0  0  0  0  0  0  0  0
   50.7780   -3.7384   -7.9161 C   0  0  0  0  0  0  0  0  0  0  0  0
   51.2751   -3.4081   -9.2272 N   0  0  0  0  0  0  0  0  0  0  0  0
   52.6936   -3.6654   -9.2875 C   0  0  0  0  0  0  0  0  0  0  0  0
   53.3116   -3.4344  -10.3385 O   0  0  0  0  0  0  0  0  0  0  0  0
   53.0693   -4.1737   -7.9893 C   0  0  0  0  0  0  0  0  0  0  0  0
   54.3074   -4.5858   -7.5163 C   0  0  0  0  0  0  0  0  0  0  0  0
   55.5726   -4.7221   -8.0155 C   0  0  0  0  0  0  0  0  0  0  0  0
   56.1323   -4.4372   -9.2174 C   0  0  0  0  0  0  0  0  0  0  0  0
   57.5015   -4.7115   -9.3880 C   0  0  0  0  0  0  0  0  0  0  0  0
   58.2422   -5.2521   -8.3606 C   0  0  0  0  0  0  0  0  0  0  0  0
   57.6578   -5.5393   -7.1343 C   0  0  0  0  0  0  0  0  0  0  0  0
   56.3242   -5.2639   -6.9923 C   0  0  0  0  0  0  0  0  0  0  0  0
   55.5778   -5.4566   -5.9107 N   0  0  0  0  0  0  0  0  0  0  0  0
   54.3245   -5.0303   -6.2201 C   0  0  0  0  0  0  0  0  0  0  0  0
   53.1919   -5.0769   -5.3888 C   0  0  0  0  0  0  0  0  0  0  0  0
   50.6506   -3.0409   -9.9800 H   0  0  0  0  0  0  0  0  0  0  0  0
   57.5067   -9.3079   -2.3060 C   0  0  0  0  0  0  0  0  0  0  0  0
   56.3843   -8.8190   -3.0394 N   0  0  0  0  0  0  0  0  0  0  0  0
   56.5038   -9.0113   -4.0795 H   0  0  0  0  0  0  0  0  0  0  0  0
   54.3113   -7.4605   -1.5216 O   0  0  0  0  0  0  0  0  0  0  0  0
   53.2510   -8.2966   -1.3694 C   0  0  0  0  0  0  0  0  0  0  0  0
 33 34  1  0  0  0
 34  1  1  0  0  0
  1  2  1  0  0  0
  2  3  1  0  0  0
  3  4  1  0  0  0
  4  5  1  0  0  0
  5  6  1  0  0  0
  5  7  1  0  0  0
  7 36  1  0  0  0
 36 37  1  0  0  0
  5  8  1  0  0  0
  8  9  1  0  0  0
  9 10  2  0  0  0
 10 11  1  0  0  0
 11 12  2  0  0  0
 12 13  1  0  0  0
 13 14  2  0  0  0
 14 15  1  0  0  0
 15 16  2  0  0  0
 16 17  1  0  0  0
 17 18  1  0  0  0
 18 19  1  0  0  0
 19 20  2  0  0  0
 19 21  1  0  0  0
 21 22  2  0  0  0
 22 23  1  0  0  0
 23 24  2  0  0  0
 24 25  1  0  0  0
 25 26  2  0  0  0
 26 27  1  0  0  0
 27 28  2  0  0  0
 28 29  1  0  0  0
 29 30  1  0  0  0
 30 31  2  0  0  0
  7  1  1  0  0  0
 31  8  1  0  0  0
 29  3  1  0  0  0
 14  9  1  0  0  0
 31 15  1  0  0  0
 21 16  1  0  0  0
 30 22  1  0  0  0
 28 23  1  0  0  0
 34 35  1  0  0  0
 18 32  1  0  0  0
M  END
> <minimizedAffinity>
-9.28001

> <CNNscore>
0.4751777649

> <CNNaffinity>
6.9833335876

> <CNN_VS>
3.3183248043

> <CNNaffinity_variance>
0.2523142695

$$$$
[H]c1c([H])c([H])c2c(c1[H])c1c3c(c4c5c([H])c([H])c([H])c([H])c5n5c4c1n2[C@]1([H])O[C@]5(C([H])([H])[H])[C@]([H])(OC([H])([H])[H])[C@@]([H])(N([H])C([H])([H])[H])C1([H])[H])C([H])([H])N([H])C3=O


 37 44  0  0  0  0  0  0  0  0999 V2000
   63.0712   -4.5371  -13.6258 C   0  0  0  0  0  0  0  0  0  0  0  0
   63.3215   -4.9488  -12.1378 C   0  0  0  0  0  0  0  0  0  0  0  0
   63.5366   -6.2988  -12.2658 C   0  0  0  0  0  0  0  0  0  0  0  0
   64.6520   -6.3800  -13.0942 O   0  0  0  0  0  0  0  0  0  0  0  0
   64.1475   -6.7022  -14.3935 C   0  0  0  0  0  0  0  0  0  0  0  0
   65.3810   -6.3623  -15.2657 C   0  0  0  0  0  0  0  0  0  0  0  0
   63.0531   -5.7693  -14.5744 C   0  0  0  0  0  0  0  0  0  0  0  0
   63.9709   -8.1385  -14.3427 N   0  0  0  0  0  0  0  0  0  0  0  0
   64.0688   -8.9835  -15.4000 C   0  0  0  0  0  0  0  0  0  0  0  0
   64.2083   -8.7639  -16.7405 C   0  0  0  0  0  0  0  0  0  0  0  0
   64.2781   -9.8281  -17.6302 C   0  0  0  0  0  0  0  0  0  0  0  0
   64.2086  -11.1545  -17.1923 C   0  0  0  0  0  0  0  0  0  0  0  0
   64.0669  -11.3865  -15.8404 C   0  0  0  0  0  0  0  0  0  0  0  0
   64.0011  -10.3058  -14.9876 C   0  0  0  0  0  0  0  0  0  0  0  0
   63.8536  -10.2903  -13.6481 C   0  0  0  0  0  0  0  0  0  0  0  0
   63.7625  -11.2434  -12.6222 C   0  0  0  0  0  0  0  0  0  0  0  0
   63.7701  -12.7090  -12.7585 C   0  0  0  0  0  0  0  0  0  0  0  0
   63.6395  -13.2096  -11.4141 N   0  0  0  0  0  0  0  0  0  0  0  0
   63.5709  -12.1042  -10.4891 C   0  0  0  0  0  0  0  0  0  0  0  0
   63.4648  -12.3311   -9.2738 O   0  0  0  0  0  0  0  0  0  0  0  0
   63.6505  -10.9028  -11.2861 C   0  0  0  0  0  0  0  0  0  0  0  0
   63.6193   -9.5706  -10.8979 C   0  0  0  0  0  0  0  0  0  0  0  0
   63.4737   -8.8732   -9.7313 C   0  0  0  0  0  0  0  0  0  0  0  0
   63.3517   -9.2488   -8.4340 C   0  0  0  0  0  0  0  0  0  0  0  0
   63.2189   -8.2374   -7.4652 C   0  0  0  0  0  0  0  0  0  0  0  0
   63.2146   -6.9102   -7.8324 C   0  0  0  0  0  0  0  0  0  0  0  0
   63.3406   -6.5380   -9.1641 C   0  0  0  0  0  0  0  0  0  0  0  0
   63.4682   -7.5399  -10.0885 C   0  0  0  0  0  0  0  0  0  0  0  0
   63.6039   -7.4038  -11.4027 N   0  0  0  0  0  0  0  0  0  0  0  0
   63.7084   -8.6581  -11.9165 C   0  0  0  0  0  0  0  0  0  0  0  0
   63.8307   -9.0028  -13.2738 C   0  0  0  0  0  0  0  0  0  0  0  0
   63.6053  -14.2326  -11.2048 H   0  0  0  0  0  0  0  0  0  0  0  0
   61.4690   -3.1877  -14.7942 C   0  0  0  0  0  0  0  0  0  0  0  0
   61.7288   -3.9867  -13.6406 N   0  0  0  0  0  0  0  0  0  0  0  0
   61.5862   -3.4187  -12.7517 H   0  0  0  0  0  0  0  0  0  0  0  0
   63.2723   -5.1216  -15.8260 O   0  0  0  0  0  0  0  0  0  0  0  0
   64.5828   -5.0436  -16.1767 C   0  0  0  0  0  0  0  0  0  0  0  0
 33 34  1  0  0  0
 34  1  1  0  0  0
  1  2  1  0  0  0
  2  3  1  0  0  0
  3  4  1  0  0  0
  4  5  1  0  0  0
  5  6  1  0  0  0
  5  7  1  0  0  0
  7 36  1  0  0  0
 36 37  1  0  0  0
  5  8  1  0  0  0
  8  9  1  0  0  0
  9 10  2  0  0  0
 10 11  1  0  0  0
 11 12  2  0  0  0
 12 13  1  0  0  0
 13 14  2  0  0  0
 14 15  1  0  0  0
 15 16  2  0  0  0
 16 17  1  0  0  0
 17 18  1  0  0  0
 18 19  1  0  0  0
 19 20  2  0  0  0
 19 21  1  0  0  0
 21 22  2  0  0  0
 22 23  1  0  0  0
 23 24  2  0  0  0
 24 25  1  0  0  0
 25 26  2  0  0  0
 26 27  1  0  0  0
 27 28  2  0  0  0
 28 29  1  0  0  0
 29 30  1  0  0  0
 30 31  2  0  0  0
  7  1  1  0  0  0
 31  8  1  0  0  0
 29  3  1  0  0  0
 14  9  1  0  0  0
 31 15  1  0  0  0
 21 16  1  0  0  0
 30 22  1  0  0  0
 28 23  1  0  0  0
 34 35  1  0  0  0
 18 32  1  0  0  0
M  END
> <minimizedAffinity>
-0.93885

> <CNNscore>
0.4180964828

> <CNNaffinity>
4.7775778770

> <CNN_VS>
1.9974884987

> <CNNaffinity_variance>
0.1144467816

$$$$
[H]c1c([H])c([H])c2c(c1[H])c1c3c(c4c5c([H])c([H])c([H])c([H])c5n5c4c1n2[C@]1([H])O[C@]5(C([H])([H])[H])[C@]([H])(OC([H])([H])[H])[C@@]([H])(N([H])C([H])([H])[H])C1([H])[H])C([H])([H])N([H])C3=O


 37 44  0  0  0  0  0  0  0  0999 V2000
   52.0536   -3.1100   -8.7525 C   0  0  0  0  0  0  0  0  0  0  0  0
   52.8662   -3.3130  -10.0733 C   0  0  0  0  0  0  0  0  0  0  0  0
   53.9726   -3.9794   -9.6075 C   0  0  0  0  0  0  0  0  0  0  0  0
   53.4497   -5.1442   -9.0537 O   0  0  0  0  0  0  0  0  0  0  0  0
   53.4307   -4.9268   -7.6398 C   0  0  0  0  0  0  0  0  0  0  0  0
   52.4823   -6.0665   -7.1934 C   0  0  0  0  0  0  0  0  0  0  0  0
   52.8361   -3.6118   -7.5059 C   0  0  0  0  0  0  0  0  0  0  0  0
   54.7851   -5.2351   -7.2306 N   0  0  0  0  0  0  0  0  0  0  0  0
   55.1508   -5.7286   -6.0205 C   0  0  0  0  0  0  0  0  0  0  0  0
   54.4529   -5.9377   -4.8657 C   0  0  0  0  0  0  0  0  0  0  0  0
   55.0808   -6.4591   -3.7419 C   0  0  0  0  0  0  0  0  0  0  0  0
   56.4402   -6.7870   -3.7485 C   0  0  0  0  0  0  0  0  0  0  0  0
   57.1539   -6.5787   -4.9099 C   0  0  0  0  0  0  0  0  0  0  0  0
   56.4973   -6.0598   -6.0051 C   0  0  0  0  0  0  0  0  0  0  0  0
   56.9864   -5.7647   -7.2257 C   0  0  0  0  0  0  0  0  0  0  0  0
   58.2200   -5.8813   -7.8844 C   0  0  0  0  0  0  0  0  0  0  0  0
   59.4849   -6.3930   -7.3321 C   0  0  0  0  0  0  0  0  0  0  0  0
   60.4336   -6.2855   -8.4108 N   0  0  0  0  0  0  0  0  0  0  0  0
   59.7806   -5.7476   -9.5797 C   0  0  0  0  0  0  0  0  0  0  0  0
   60.4327   -5.5863  -10.6231 O   0  0  0  0  0  0  0  0  0  0  0  0
   58.4066   -5.5114   -9.2042 C   0  0  0  0  0  0  0  0  0  0  0  0
   57.3547   -4.9936   -9.9472 C   0  0  0  0  0  0  0  0  0  0  0  0
   57.1722   -4.4924  -11.2058 C   0  0  0  0  0  0  0  0  0  0  0  0
   57.9903   -4.3566  -12.2787 C   0  0  0  0  0  0  0  0  0  0  0  0
   57.4545   -3.7850  -13.4472 C   0  0  0  0  0  0  0  0  0  0  0  0
   56.1392   -3.3797  -13.4907 C   0  0  0  0  0  0  0  0  0  0  0  0
   55.3113   -3.5243  -12.3855 C   0  0  0  0  0  0  0  0  0  0  0  0
   55.8552   -4.0828  -11.2600 C   0  0  0  0  0  0  0  0  0  0  0  0
   55.2423   -4.3133  -10.1045 N   0  0  0  0  0  0  0  0  0  0  0  0
   56.1606   -4.8880   -9.2831 C   0  0  0  0  0  0  0  0  0  0  0  0
   55.9675   -5.2713   -7.9446 C   0  0  0  0  0  0  0  0  0  0  0  0
   61.4325   -6.5712   -8.3004 H   0  0  0  0  0  0  0  0  0  0  0  0
   50.6307   -1.2686   -8.1711 C   0  0  0  0  0  0  0  0  0  0  0  0
   51.9281   -1.6717   -8.6082 N   0  0  0  0  0  0  0  0  0  0  0  0
   52.1679   -1.2160   -9.5397 H   0  0  0  0  0  0  0  0  0  0  0  0
   51.7629   -3.7426   -6.5758 O   0  0  0  0  0  0  0  0  0  0  0  0
   50.5964   -4.1469   -7.1436 C   0  0  0  0  0  0  0  0  0  0  0  0
 33 34  1  0  0  0
 34  1  1  0  0  0
  1  2  1  0  0  0
  2  3  1  0  0  0
  3  4  1  0  0  0
  4  5  1  0  0  0
  5  6  1  0  0  0
  5  7  1  0  0  0
  7 36  1  0  0  0
 36 37  1  0  0  0
  5  8  1  0  0  0
  8  9  1  0  0  0
  9 10  2  0  0  0
 10 11  1  0  0  0
 11 12  2  0  0  0
 12 13  1  0  0  0
 13 14  2  0  0  0
 14 15  1  0  0  0
 15 16  2  0  0  0
 16 17  1  0  0  0
 17 18  1  0  0  0
 18 19  1  0  0  0
 19 20  2  0  0  0
 19 21  1  0  0  0
 21 22  2  0  0  0
 22 23  1  0  0  0
 23 24  2  0  0  0
 24 25  1  0  0  0
 25 26  2  0  0  0
 26 27  1  0  0  0
 27 28  2  0  0  0
 28 29  1  0  0  0
 29 30  1  0  0  0
 30 31  2  0  0  0
  7  1  1  0  0  0
 31  8  1  0  0  0
 29  3  1  0  0  0
 14  9  1  0  0  0
 31 15  1  0  0  0
 21 16  1  0  0  0
 30 22  1  0  0  0
 28 23  1  0  0  0
 34 35  1  0  0  0
 18 32  1  0  0  0
M  END
> <minimizedAffinity>
-5.85419

> <CNNscore>
0.3801831007

> <CNNaffinity>
6.8773941994

> <CNN_VS>
2.6146690845

> <CNNaffinity_variance>
0.1678625643

$$$$
[H]c1c([H])c([H])c2c(c1[H])c1c3c(c4c5c([H])c([H])c([H])c([H])c5n5c4c1n2[C@]1([H])O[C@]5(C([H])([H])[H])[C@]([H])(OC([H])([H])[H])[C@@]([H])(N([H])C([H])([H])[H])C1([H])[H])C([H])([H])N([H])C3=O


 37 44  0  0  0  0  0  0  0  0999 V2000
   60.7675   -3.0950  -15.4828 C   0  0  0  0  0  0  0  0  0  0  0  0
   60.0853   -3.0469  -14.0762 C   0  0  0  0  0  0  0  0  0  0  0  0
   60.6986   -4.1005  -13.4447 C   0  0  0  0  0  0  0  0  0  0  0  0
   62.0468   -3.7553  -13.4567 O   0  0  0  0  0  0  0  0  0  0  0  0
   62.6329   -4.5169  -14.5164 C   0  0  0  0  0  0  0  0  0  0  0  0
   63.9745   -3.7646  -14.6940 C   0  0  0  0  0  0  0  0  0  0  0  0
   61.7209   -4.3153  -15.6247 C   0  0  0  0  0  0  0  0  0  0  0  0
   62.8782   -5.8090  -13.9105 N   0  0  0  0  0  0  0  0  0  0  0  0
   63.8756   -6.6638  -14.2513 C   0  0  0  0  0  0  0  0  0  0  0  0
   64.7889   -6.6503  -15.2663 C   0  0  0  0  0  0  0  0  0  0  0  0
   65.7185   -7.6740  -15.3977 C   0  0  0  0  0  0  0  0  0  0  0  0
   65.7551   -8.7492  -14.5042 C   0  0  0  0  0  0  0  0  0  0  0  0
   64.8362   -8.7721  -13.4762 C   0  0  0  0  0  0  0  0  0  0  0  0
   63.9290   -7.7392  -13.3774 C   0  0  0  0  0  0  0  0  0  0  0  0
   62.9447   -7.5585  -12.4748 C   0  0  0  0  0  0  0  0  0  0  0  0
   62.4767   -8.2232  -11.3310 C   0  0  0  0  0  0  0  0  0  0  0  0
   62.9822   -9.4808  -10.7567 C   0  0  0  0  0  0  0  0  0  0  0  0
   62.1513   -9.7261   -9.6058 N   0  0  0  0  0  0  0  0  0  0  0  0
   61.1881   -8.6608   -9.4667 C   0  0  0  0  0  0  0  0  0  0  0  0
   60.3820   -8.6861   -8.5236 O   0  0  0  0  0  0  0  0  0  0  0  0
   61.4285   -7.7509  -10.5617 C   0  0  0  0  0  0  0  0  0  0  0  0
   60.7791   -6.5723  -10.9019 C   0  0  0  0  0  0  0  0  0  0  0  0
   59.7181   -5.8464  -10.4372 C   0  0  0  0  0  0  0  0  0  0  0  0
   58.8890   -5.9905   -9.3738 C   0  0  0  0  0  0  0  0  0  0  0  0
   57.8784   -5.0289   -9.1916 C   0  0  0  0  0  0  0  0  0  0  0  0
   57.7434   -3.9775  -10.0706 C   0  0  0  0  0  0  0  0  0  0  0  0
   58.5988   -3.8406  -11.1557 C   0  0  0  0  0  0  0  0  0  0  0  0
   59.5741   -4.7887  -11.3123 C   0  0  0  0  0  0  0  0  0  0  0  0
   60.4911   -4.8429  -12.2716 N   0  0  0  0  0  0  0  0  0  0  0  0
   61.2523   -5.9414  -12.0226 C   0  0  0  0  0  0  0  0  0  0  0  0
   62.3228   -6.4159  -12.8004 C   0  0  0  0  0  0  0  0  0  0  0  0
   62.2771  -10.5689   -9.0012 H   0  0  0  0  0  0  0  0  0  0  0  0
   59.2954   -2.1222  -17.1075 C   0  0  0  0  0  0  0  0  0  0  0  0
   59.6799   -3.3113  -16.4185 N   0  0  0  0  0  0  0  0  0  0  0  0
   58.8531   -3.7206  -15.8876 H   0  0  0  0  0  0  0  0  0  0  0  0
   62.5120   -3.8843  -16.7304 O   0  0  0  0  0  0  0  0  0  0  0  0
   63.1514   -2.7047  -16.5154 C   0  0  0  0  0  0  0  0  0  0  0  0
 33 34  1  0  0  0
 34  1  1  0  0  0
  1  2  1  0  0  0
  2  3  1  0  0  0
  3  4  1  0  0  0
  4  5  1  0  0  0
  5  6  1  0  0  0
  5  7  1  0  0  0
  7 36  1  0  0  0
 36 37  1  0  0  0
  5  8  1  0  0  0
  8  9  1  0  0  0
  9 10  2  0  0  0
 10 11  1  0  0  0
 11 12  2  0  0  0
 12 13  1  0  0  0
 13 14  2  0  0  0
 14 15  1  0  0  0
 15 16  2  0  0  0
 16 17  1  0  0  0
 17 18  1  0  0  0
 18 19  1  0  0  0
 19 20  2  0  0  0
 19 21  1  0  0  0
 21 22  2  0  0  0
 22 23  1  0  0  0
 23 24  2  0  0  0
 24 25  1  0  0  0
 25 26  2  0  0  0
 26 27  1  0  0  0
 27 28  2  0  0  0
 28 29  1  0  0  0
 29 30  1  0  0  0
 30 31  2  0  0  0
  7  1  1  0  0  0
 31  8  1  0  0  0
 29  3  1  0  0  0
 14  9  1  0  0  0
 31 15  1  0  0  0
 21 16  1  0  0  0
 30 22  1  0  0  0
 28 23  1  0  0  0
 34 35  1  0  0  0
 18 32  1  0  0  0
M  END
> <minimizedAffinity>
2.75578

> <CNNscore>
0.3304739892

> <CNNaffinity>
4.7083768845

> <CNN_VS>
1.5559960604

> <CNNaffinity_variance>
0.0255755931

$$$$
[H]c1c([H])c([H])c2c(c1[H])c1c3c(c4c5c([H])c([H])c([H])c([H])c5n5c4c1n2[C@]1([H])O[C@]5(C([H])([H])[H])[C@]([H])(OC([H])([H])[H])[C@@]([H])(N([H])C([H])([H])[H])C1([H])[H])C([H])([H])N([H])C3=O


 37 44  0  0  0  0  0  0  0  0999 V2000
   58.8818   -3.7746  -12.9081 C   0  0  0  0  0  0  0  0  0  0  0  0
   59.7564   -4.7983  -12.1123 C   0  0  0  0  0  0  0  0  0  0  0  0
   58.9648   -5.0309  -11.0148 C   0  0  0  0  0  0  0  0  0  0  0  0
   57.7934   -5.5531  -11.5553 O   0  0  0  0  0  0  0  0  0  0  0  0
   56.8526   -4.4754  -11.5565 C   0  0  0  0  0  0  0  0  0  0  0  0
   55.7819   -5.0386  -12.5229 C   0  0  0  0  0  0  0  0  0  0  0  0
   57.6010   -3.3713  -12.1237 C   0  0  0  0  0  0  0  0  0  0  0  0
   56.3337   -4.4761  -10.2047 N   0  0  0  0  0  0  0  0  0  0  0  0
   55.0885   -4.0811   -9.8372 C   0  0  0  0  0  0  0  0  0  0  0  0
   54.0746   -3.4818  -10.5280 C   0  0  0  0  0  0  0  0  0  0  0  0
   52.8759   -3.1694   -9.8998 C   0  0  0  0  0  0  0  0  0  0  0  0
   52.6623   -3.4532   -8.5472 C   0  0  0  0  0  0  0  0  0  0  0  0
   53.6806   -4.0576   -7.8407 C   0  0  0  0  0  0  0  0  0  0  0  0
   54.8560   -4.3529   -8.4973 C   0  0  0  0  0  0  0  0  0  0  0  0
   55.9767   -4.9245   -8.0142 C   0  0  0  0  0  0  0  0  0  0  0  0
   56.3985   -5.4643   -6.7896 C   0  0  0  0  0  0  0  0  0  0  0  0
   55.6396   -5.5264   -5.5297 C   0  0  0  0  0  0  0  0  0  0  0  0
   56.5285   -6.1595   -4.5894 N   0  0  0  0  0  0  0  0  0  0  0  0
   57.7724   -6.4879   -5.2429 C   0  0  0  0  0  0  0  0  0  0  0  0
   58.6706   -7.0508   -4.5977 O   0  0  0  0  0  0  0  0  0  0  0  0
   57.6450   -6.0362   -6.6083 C   0  0  0  0  0  0  0  0  0  0  0  0
   58.5525   -6.0968   -7.6568 C   0  0  0  0  0  0  0  0  0  0  0  0
   59.8387   -6.5211   -7.8414 C   0  0  0  0  0  0  0  0  0  0  0  0
   60.7422   -7.1261   -7.0311 C   0  0  0  0  0  0  0  0  0  0  0  0
   62.0068   -7.4310   -7.5666 C   0  0  0  0  0  0  0  0  0  0  0  0
   62.3085   -7.1213   -8.8741 C   0  0  0  0  0  0  0  0  0  0  0  0
   61.3748   -6.5019   -9.6941 C   0  0  0  0  0  0  0  0  0  0  0  0
   60.1514   -6.2150   -9.1505 C   0  0  0  0  0  0  0  0  0  0  0  0
   59.1226   -5.6334   -9.7569 N   0  0  0  0  0  0  0  0  0  0  0  0
   58.1193   -5.5628   -8.8423 C   0  0  0  0  0  0  0  0  0  0  0  0
   56.8499   -4.9889   -9.0300 C   0  0  0  0  0  0  0  0  0  0  0  0
   56.2545   -6.3280   -3.5954 H   0  0  0  0  0  0  0  0  0  0  0  0
   60.7747   -2.7154  -13.9320 C   0  0  0  0  0  0  0  0  0  0  0  0
   59.6991   -2.5796  -13.0038 N   0  0  0  0  0  0  0  0  0  0  0  0
   60.0689   -2.3440  -12.0339 H   0  0  0  0  0  0  0  0  0  0  0  0
   56.8114   -2.8490  -13.1904 O   0  0  0  0  0  0  0  0  0  0  0  0
   57.0768   -3.4201  -14.3946 C   0  0  0  0  0  0  0  0  0  0  0  0
 33 34  1  0  0  0
 34  1  1  0  0  0
  1  2  1  0  0  0
  2  3  1  0  0  0
  3  4  1  0  0  0
  4  5  1  0  0  0
  5  6  1  0  0  0
  5  7  1  0  0  0
  7 36  1  0  0  0
 36 37  1  0  0  0
  5  8  1  0  0  0
  8  9  1  0  0  0
  9 10  2  0  0  0
 10 11  1  0  0  0
 11 12  2  0  0  0
 12 13  1  0  0  0
 13 14  2  0  0  0
 14 15  1  0  0  0
 15 16  2  0  0  0
 16 17  1  0  0  0
 17 18  1  0  0  0
 18 19  1  0  0  0
 19 20  2  0  0  0
 19 21  1  0  0  0
 21 22  2  0  0  0
 22 23  1  0  0  0
 23 24  2  0  0  0
 24 25  1  0  0  0
 25 26  2  0  0  0
 26 27  1  0  0  0
 27 28  2  0  0  0
 28 29  1  0  0  0
 29 30  1  0  0  0
 30 31  2  0  0  0
  7  1  1  0  0  0
 31  8  1  0  0  0
 29  3  1  0  0  0
 14  9  1  0  0  0
 31 15  1  0  0  0
 21 16  1  0  0  0
 30 22  1  0  0  0
 28 23  1  0  0  0
 34 35  1  0  0  0
 18 32  1  0  0  0
M  END
> <minimizedAffinity>
-1.17717

> <CNNscore>
0.2782619596

> <CNNaffinity>
6.0180320740

> <CNN_VS>
1.6745893955

> <CNNaffinity_variance>
0.1721404642

$$$$
[H]c1c([H])c([H])c2c(c1[H])c1c3c(c4c5c([H])c([H])c([H])c([H])c5n5c4c1n2[C@]1([H])O[C@]5(C([H])([H])[H])[C@]([H])(OC([H])([H])[H])[C@@]([H])(N([H])C([H])([H])[H])C1([H])[H])C([H])([H])N([H])C3=O


 37 44  0  0  0  0  0  0  0  0999 V2000
   51.1040   -3.1771   -7.9535 C   0  0  0  0  0  0  0  0  0  0  0  0
   52.4465   -3.6160   -8.6252 C   0  0  0  0  0  0  0  0  0  0  0  0
   53.0032   -4.3856   -7.6338 C   0  0  0  0  0  0  0  0  0  0  0  0
   52.0771   -5.4075   -7.4474 O   0  0  0  0  0  0  0  0  0  0  0  0
   51.3457   -5.0581   -6.2686 C   0  0  0  0  0  0  0  0  0  0  0  0
   50.1281   -6.0052   -6.4026 C   0  0  0  0  0  0  0  0  0  0  0  0
   51.0045   -3.6654   -6.4804 C   0  0  0  0  0  0  0  0  0  0  0  0
   52.1991   -5.5152   -5.1917 N   0  0  0  0  0  0  0  0  0  0  0  0
   51.7747   -5.9397   -3.9746 C   0  0  0  0  0  0  0  0  0  0  0  0
   50.5457   -5.9387   -3.3795 C   0  0  0  0  0  0  0  0  0  0  0  0
   50.3800   -6.4360   -2.0933 C   0  0  0  0  0  0  0  0  0  0  0  0
   51.4555   -6.9522   -1.3634 C   0  0  0  0  0  0  0  0  0  0  0  0
   52.7008   -6.9568   -1.9556 C   0  0  0  0  0  0  0  0  0  0  0  0
   52.8272   -6.4552   -3.2331 C   0  0  0  0  0  0  0  0  0  0  0  0
   53.9325   -6.3481   -3.9967 C   0  0  0  0  0  0  0  0  0  0  0  0
   55.2864   -6.6993   -3.8841 C   0  0  0  0  0  0  0  0  0  0  0  0
   55.9549   -7.3308   -2.7346 C   0  0  0  0  0  0  0  0  0  0  0  0
   57.3340   -7.4603   -3.1299 N   0  0  0  0  0  0  0  0  0  0  0  0
   57.5057   -6.9474   -4.4676 C   0  0  0  0  0  0  0  0  0  0  0  0
   58.6292   -6.9785   -4.9936 O   0  0  0  0  0  0  0  0  0  0  0  0
   56.2063   -6.4850   -4.8947 C   0  0  0  0  0  0  0  0  0  0  0  0
   55.8171   -5.8955   -6.0895 C   0  0  0  0  0  0  0  0  0  0  0  0
   56.4206   -5.4938   -7.2484 C   0  0  0  0  0  0  0  0  0  0  0  0
   57.6932   -5.5763   -7.7095 C   0  0  0  0  0  0  0  0  0  0  0  0
   57.9676   -5.0469   -8.9836 C   0  0  0  0  0  0  0  0  0  0  0  0
   56.9685   -4.4653   -9.7320 C   0  0  0  0  0  0  0  0  0  0  0  0
   55.6692   -4.3870   -9.2491 C   0  0  0  0  0  0  0  0  0  0  0  0
   55.4266   -4.9089   -8.0067 C   0  0  0  0  0  0  0  0  0  0  0  0
   54.2641   -4.9409   -7.3651 N   0  0  0  0  0  0  0  0  0  0  0  0
   54.4912   -5.5602   -6.1763 C   0  0  0  0  0  0  0  0  0  0  0  0
   53.5537   -5.7850   -5.1533 C   0  0  0  0  0  0  0  0  0  0  0  0
   58.0554   -7.8728   -2.4965 H   0  0  0  0  0  0  0  0  0  0  0  0
   49.8782   -1.1160   -7.9035 C   0  0  0  0  0  0  0  0  0  0  0  0
   51.1672   -1.7284   -7.9034 N   0  0  0  0  0  0  0  0  0  0  0  0
   51.7446   -1.3862   -8.7296 H   0  0  0  0  0  0  0  0  0  0  0  0
   49.5971   -3.5552   -6.2774 O   0  0  0  0  0  0  0  0  0  0  0  0
   49.2611   -2.9930   -5.0868 C   0  0  0  0  0  0  0  0  0  0  0  0
 33 34  1  0  0  0
 34  1  1  0  0  0
  1  2  1  0  0  0
  2  3  1  0  0  0
  3  4  1  0  0  0
  4  5  1  0  0  0
  5  6  1  0  0  0
  5  7  1  0  0  0
  7 36  1  0  0  0
 36 37  1  0  0  0
  5  8  1  0  0  0
  8  9  1  0  0  0
  9 10  2  0  0  0
 10 11  1  0  0  0
 11 12  2  0  0  0
 12 13  1  0  0  0
 13 14  2  0  0  0
 14 15  1  0  0  0
 15 16  2  0  0  0
 16 17  1  0  0  0
 17 18  1  0  0  0
 18 19  1  0  0  0
 19 20  2  0  0  0
 19 21  1  0  0  0
 21 22  2  0  0  0
 22 23  1  0  0  0
 23 24  2  0  0  0
 24 25  1  0  0  0
 25 26  2  0  0  0
 26 27  1  0  0  0
 27 28  2  0  0  0
 28 29  1  0  0  0
 29 30  1  0  0  0
 30 31  2  0  0  0
  7  1  1  0  0  0
 31  8  1  0  0  0
 29  3  1  0  0  0
 14  9  1  0  0  0
 31 15  1  0  0  0
 21 16  1  0  0  0
 30 22  1  0  0  0
 28 23  1  0  0  0
 34 35  1  0  0  0
 18 32  1  0  0  0
M  END
> <minimizedAffinity>
-10.92419

> <CNNscore>
0.2720983326

> <CNNaffinity>
7.0385389328

> <CNN_VS>
1.9151747227

> <CNNaffinity_variance>
0.0614204034

$$$$
[H]c1c([H])c([H])c2c(c1[H])c1c3c(c4c5c([H])c([H])c([H])c([H])c5n5c4c1n2[C@]1([H])O[C@]5(C([H])([H])[H])[C@]([H])(OC([H])([H])[H])[C@@]([H])(N([H])C([H])([H])[H])C1([H])[H])C([H])([H])N([H])C3=O


 37 44  0  0  0  0  0  0  0  0999 V2000
   56.4480   -6.8076   -4.6564 C   0  0  0  0  0  0  0  0  0  0  0  0
   57.8215   -6.7121   -5.3983 C   0  0  0  0  0  0  0  0  0  0  0  0
   57.4658   -6.0270   -6.5337 C   0  0  0  0  0  0  0  0  0  0  0  0
   56.9726   -4.8184   -6.0512 O   0  0  0  0  0  0  0  0  0  0  0  0
   55.5475   -4.9311   -6.1067 C   0  0  0  0  0  0  0  0  0  0  0  0
   55.1369   -3.7501   -5.1933 C   0  0  0  0  0  0  0  0  0  0  0  0
   55.2852   -6.2253   -5.5093 C   0  0  0  0  0  0  0  0  0  0  0  0
   55.2349   -4.6102   -7.4837 N   0  0  0  0  0  0  0  0  0  0  0  0
   54.0857   -4.0338   -7.9182 C   0  0  0  0  0  0  0  0  0  0  0  0
   52.9141   -3.7319   -7.2854 C   0  0  0  0  0  0  0  0  0  0  0  0
   51.8669   -3.1372   -7.9773 C   0  0  0  0  0  0  0  0  0  0  0  0
   51.9700   -2.8274   -9.3371 C   0  0  0  0  0  0  0  0  0  0  0  0
   53.1491   -3.1292   -9.9853 C   0  0  0  0  0  0  0  0  0  0  0  0
   54.1664   -3.7190   -9.2664 C   0  0  0  0  0  0  0  0  0  0  0  0
   55.3862   -4.1088   -9.6864 C   0  0  0  0  0  0  0  0  0  0  0  0
   56.1163   -4.0561  -10.8836 C   0  0  0  0  0  0  0  0  0  0  0  0
   55.6715   -3.5208  -12.1807 C   0  0  0  0  0  0  0  0  0  0  0  0
   56.7882   -3.7189  -13.0689 N   0  0  0  0  0  0  0  0  0  0  0  0
   57.8777   -4.3331  -12.3493 C   0  0  0  0  0  0  0  0  0  0  0  0
   58.9395   -4.5786  -12.9428 O   0  0  0  0  0  0  0  0  0  0  0  0
   57.4132   -4.5242  -10.9956 C   0  0  0  0  0  0  0  0  0  0  0  0
   58.0589   -5.0822   -9.9009 C   0  0  0  0  0  0  0  0  0  0  0  0
   59.2655   -5.6721   -9.6467 C   0  0  0  0  0  0  0  0  0  0  0  0
   60.3674   -5.8964  -10.4045 C   0  0  0  0  0  0  0  0  0  0  0  0
   61.4603   -6.5455   -9.8018 C   0  0  0  0  0  0  0  0  0  0  0  0
   61.4037   -6.9368   -8.4826 C   0  0  0  0  0  0  0  0  0  0  0  0
   60.2697   -6.7013   -7.7168 C   0  0  0  0  0  0  0  0  0  0  0  0
   59.2192   -6.0684   -8.3253 C   0  0  0  0  0  0  0  0  0  0  0  0
   58.0529   -5.7461   -7.7775 N   0  0  0  0  0  0  0  0  0  0  0  0
   57.3263   -5.1241   -8.7435 C   0  0  0  0  0  0  0  0  0  0  0  0
   56.0114   -4.6412   -8.6262 C   0  0  0  0  0  0  0  0  0  0  0  0
   56.7525   -3.4382  -14.0747 H   0  0  0  0  0  0  0  0  0  0  0  0
   55.7911   -8.6040   -3.2091 C   0  0  0  0  0  0  0  0  0  0  0  0
   56.1912   -8.2297   -4.5269 N   0  0  0  0  0  0  0  0  0  0  0  0
   57.0676   -8.7596   -4.8170 H   0  0  0  0  0  0  0  0  0  0  0  0
   54.3116   -6.0134   -4.4888 O   0  0  0  0  0  0  0  0  0  0  0  0
   53.0700   -6.4548   -4.8207 C   0  0  0  0  0  0  0  0  0  0  0  0
 33 34  1  0  0  0
 34  1  1  0  0  0
  1  2  1  0  0  0
  2  3  1  0  0  0
  3  4  1  0  0  0
  4  5  1  0  0  0
  5  6  1  0  0  0
  5  7  1  0  0  0
  7 36  1  0  0  0
 36 37  1  0  0  0
  5  8  1  0  0  0
  8  9  1  0  0  0
  9 10  2  0  0  0
 10 11  1  0  0  0
 11 12  2  0  0  0
 12 13  1  0  0  0
 13 14  2  0  0  0
 14 15  1  0  0  0
 15 16  2  0  0  0
 16 17  1  0  0  0
 17 18  1  0  0  0
 18 19  1  0  0  0
 19 20  2  0  0  0
 19 21  1  0  0  0
 21 22  2  0  0  0
 22 23  1  0  0  0
 23 24  2  0  0  0
 24 25  1  0  0  0
 25 26  2  0  0  0
 26 27  1  0  0  0
 27 28  2  0  0  0
 28 29  1  0  0  0
 29 30  1  0  0  0
 30 31  2  0  0  0
  7  1  1  0  0  0
 31  8  1  0  0  0
 29  3  1  0  0  0
 14  9  1  0  0  0
 31 15  1  0  0  0
 21 16  1  0  0  0
 30 22  1  0  0  0
 28 23  1  0  0  0
 34 35  1  0  0  0
 18 32  1  0  0  0
M  END
> <minimizedAffinity>
-3.23527

> <CNNscore>
0.1608243585

> <CNNaffinity>
6.0476956367

> <CNN_VS>
0.9726167917

> <CNNaffinity_variance>
0.2137589902

$$$$
[H]c1c([H])c([H])c2c(c1[H])c1c3c(c4c5c([H])c([H])c([H])c([H])c5n5c4c1n2[C@]1([H])O[C@]5(C([H])([H])[H])[C@]([H])(OC([H])([H])[H])[C@@]([H])(N([H])C([H])([H])[H])C1([H])[H])C([H])([H])N([H])C3=O


 37 44  0  0  0  0  0  0  0  0999 V2000
   55.8936   -3.9366   -9.4988 C   0  0  0  0  0  0  0  0  0  0  0  0
   54.4966   -3.3159   -9.1686 C   0  0  0  0  0  0  0  0  0  0  0  0
   54.2255   -3.8967   -7.9544 C   0  0  0  0  0  0  0  0  0  0  0  0
   55.2682   -3.4650   -7.1400 O   0  0  0  0  0  0  0  0  0  0  0  0
   56.1777   -4.5663   -7.0579 C   0  0  0  0  0  0  0  0  0  0  0  0
   57.4343   -3.8517   -6.5030 C   0  0  0  0  0  0  0  0  0  0  0  0
   56.3289   -4.9860   -8.4369 C   0  0  0  0  0  0  0  0  0  0  0  0
   55.6027   -5.4054   -6.0273 N   0  0  0  0  0  0  0  0  0  0  0  0
   56.2981   -6.2188   -5.1928 C   0  0  0  0  0  0  0  0  0  0  0  0
   57.6135   -6.5829   -5.1515 C   0  0  0  0  0  0  0  0  0  0  0  0
   58.0776   -7.4560   -4.1761 C   0  0  0  0  0  0  0  0  0  0  0  0
   57.2237   -7.9922   -3.2071 C   0  0  0  0  0  0  0  0  0  0  0  0
   55.8933   -7.6312   -3.2410 C   0  0  0  0  0  0  0  0  0  0  0  0
   55.4689   -6.7626   -4.2234 C   0  0  0  0  0  0  0  0  0  0  0  0
   54.2302   -6.2856   -4.4563 C   0  0  0  0  0  0  0  0  0  0  0  0
   52.9670   -6.3939   -3.8548 C   0  0  0  0  0  0  0  0  0  0  0  0
   52.6041   -7.1917   -2.6721 C   0  0  0  0  0  0  0  0  0  0  0  0
   51.1943   -6.9620   -2.4853 N   0  0  0  0  0  0  0  0  0  0  0  0
   50.7127   -6.0517   -3.4961 C   0  0  0  0  0  0  0  0  0  0  0  0
   49.5168   -5.7207   -3.4993 O   0  0  0  0  0  0  0  0  0  0  0  0
   51.8499   -5.7268   -4.3244 C   0  0  0  0  0  0  0  0  0  0  0  0
   51.9358   -4.9056   -5.4401 C   0  0  0  0  0  0  0  0  0  0  0  0
   51.0793   -4.1554   -6.1966 C   0  0  0  0  0  0  0  0  0  0  0  0
   49.7559   -3.8763   -6.0993 C   0  0  0  0  0  0  0  0  0  0  0  0
   49.1849   -3.0426   -7.0781 C   0  0  0  0  0  0  0  0  0  0  0  0
   49.9540   -2.5304   -8.0991 C   0  0  0  0  0  0  0  0  0  0  0  0
   51.3083   -2.8233   -8.1879 C   0  0  0  0  0  0  0  0  0  0  0  0
   51.8412   -3.6367   -7.2241 C   0  0  0  0  0  0  0  0  0  0  0  0
   53.1042   -4.0347   -7.1212 N   0  0  0  0  0  0  0  0  0  0  0  0
   53.1783   -4.8160   -6.0112 C   0  0  0  0  0  0  0  0  0  0  0  0
   54.3161   -5.4867   -5.5300 C   0  0  0  0  0  0  0  0  0  0  0  0
   50.6565   -7.4166   -1.7135 H   0  0  0  0  0  0  0  0  0  0  0  0
   56.2386   -3.9864  -11.8720 C   0  0  0  0  0  0  0  0  0  0  0  0
   55.6961   -4.6635  -10.7389 N   0  0  0  0  0  0  0  0  0  0  0  0
   54.6535   -4.8345  -10.8685 H   0  0  0  0  0  0  0  0  0  0  0  0
   57.7304   -5.0348   -8.6968 O   0  0  0  0  0  0  0  0  0  0  0  0
   58.0740   -5.9238   -9.6653 C   0  0  0  0  0  0  0  0  0  0  0  0
 33 34  1  0  0  0
 34  1  1  0  0  0
  1  2  1  0  0  0
  2  3  1  0  0  0
  3  4  1  0  0  0
  4  5  1  0  0  0
  5  6  1  0  0  0
  5  7  1  0  0  0
  7 36  1  0  0  0
 36 37  1  0  0  0
  5  8  1  0  0  0
  8  9  1  0  0  0
  9 10  2  0  0  0
 10 11  1  0  0  0
 11 12  2  0  0  0
 12 13  1  0  0  0
 13 14  2  0  0  0
 14 15  1  0  0  0
 15 16  2  0  0  0
 16 17  1  0  0  0
 17 18  1  0  0  0
 18 19  1  0  0  0
 19 20  2  0  0  0
 19 21  1  0  0  0
 21 22  2  0  0  0
 22 23  1  0  0  0
 23 24  2  0  0  0
 24 25  1  0  0  0
 25 26  2  0  0  0
 26 27  1  0  0  0
 27 28  2  0  0  0
 28 29  1  0  0  0
 29 30  1  0  0  0
 30 31  2  0  0  0
  7  1  1  0  0  0
 31  8  1  0  0  0
 29  3  1  0  0  0
 14  9  1  0  0  0
 31 15  1  0  0  0
 21 16  1  0  0  0
 30 22  1  0  0  0
 28 23  1  0  0  0
 34 35  1  0  0  0
 18 32  1  0  0  0
M  END
> <minimizedAffinity>
-7.26997

> <CNNscore>
0.1586565971

> <CNNaffinity>
6.6981596947

> <CNN_VS>
1.0627071857

> <CNNaffinity_variance>
0.3943743408

$$$$
[H]c1c([H])c([H])c2c(c1[H])c1c3c(c4c5c([H])c([H])c([H])c([H])c5n5c4c1n2[C@]1([H])O[C@]5(C([H])([H])[H])[C@]([H])(OC([H])([H])[H])[C@@]([H])(N([H])C([H])([H])[H])C1([H])[H])C([H])([H])N([H])C3=O


 37 44  0  0  0  0  0  0  0  0999 V2000
   51.6061   -5.6029   -7.8673 C   0  0  0  0  0  0  0  0  0  0  0  0
   51.4081   -5.6987   -6.3188 C   0  0  0  0  0  0  0  0  0  0  0  0
   52.7019   -5.8725   -5.8934 C   0  0  0  0  0  0  0  0  0  0  0  0
   53.3529   -4.7238   -6.3331 O   0  0  0  0  0  0  0  0  0  0  0  0
   54.0688   -5.1100   -7.5099 C   0  0  0  0  0  0  0  0  0  0  0  0
   54.3901   -3.7200   -8.1118 C   0  0  0  0  0  0  0  0  0  0  0  0
   53.0857   -5.8457   -8.2799 C   0  0  0  0  0  0  0  0  0  0  0  0
   55.2820   -5.7049   -6.9893 N   0  0  0  0  0  0  0  0  0  0  0  0
   56.4884   -5.7092   -7.6109 C   0  0  0  0  0  0  0  0  0  0  0  0
   56.8781   -5.3221   -8.8610 C   0  0  0  0  0  0  0  0  0  0  0  0
   58.2033   -5.4411   -9.2595 C   0  0  0  0  0  0  0  0  0  0  0  0
   59.1817   -5.9577   -8.4042 C   0  0  0  0  0  0  0  0  0  0  0  0
   58.7978   -6.3522   -7.1399 C   0  0  0  0  0  0  0  0  0  0  0  0
   57.4741   -6.2193   -6.7794 C   0  0  0  0  0  0  0  0  0  0  0  0
   56.8750   -6.5451   -5.6171 C   0  0  0  0  0  0  0  0  0  0  0  0
   57.2750   -7.0565   -4.3731 C   0  0  0  0  0  0  0  0  0  0  0  0
   58.6307   -7.4592   -3.9647 C   0  0  0  0  0  0  0  0  0  0  0  0
   58.4900   -7.9208   -2.6074 N   0  0  0  0  0  0  0  0  0  0  0  0
   57.1140   -7.7936   -2.1917 C   0  0  0  0  0  0  0  0  0  0  0  0
   56.7896   -8.1336   -1.0432 O   0  0  0  0  0  0  0  0  0  0  0  0
   56.3970   -7.2530   -3.3223 C   0  0  0  0  0  0  0  0  0  0  0  0
   55.0502   -6.9476   -3.4619 C   0  0  0  0  0  0  0  0  0  0  0  0
   53.9192   -7.0471   -2.7006 C   0  0  0  0  0  0  0  0  0  0  0  0
   53.6892   -7.4573   -1.4287 C   0  0  0  0  0  0  0  0  0  0  0  0
   52.3648   -7.4246   -0.9555 C   0  0  0  0  0  0  0  0  0  0  0  0
   51.3407   -6.9876   -1.7658 C   0  0  0  0  0  0  0  0  0  0  0  0
   51.5888   -6.5698   -3.0664 C   0  0  0  0  0  0  0  0  0  0  0  0
   52.8854   -6.6109   -3.5045 C   0  0  0  0  0  0  0  0  0  0  0  0
   53.3374   -6.2555   -4.7018 N   0  0  0  0  0  0  0  0  0  0  0  0
   54.6826   -6.4509   -4.6851 C   0  0  0  0  0  0  0  0  0  0  0  0
   55.5753   -6.2429   -5.7509 C   0  0  0  0  0  0  0  0  0  0  0  0
   59.3019   -8.2826   -2.0584 H   0  0  0  0  0  0  0  0  0  0  0  0
   51.6622   -7.7851   -8.8613 C   0  0  0  0  0  0  0  0  0  0  0  0
   50.8403   -6.7087   -8.4112 N   0  0  0  0  0  0  0  0  0  0  0  0
   50.2346   -6.3422   -9.2061 H   0  0  0  0  0  0  0  0  0  0  0  0
   53.0765   -5.2705   -9.5849 O   0  0  0  0  0  0  0  0  0  0  0  0
   52.5649   -4.0121   -9.6218 C   0  0  0  0  0  0  0  0  0  0  0  0
 33 34  1  0  0  0
 34  1  1  0  0  0
  1  2  1  0  0  0
  2  3  1  0  0  0
  3  4  1  0  0  0
  4  5  1  0  0  0
  5  6  1  0  0  0
  5  7  1  0  0  0
  7 36  1  0  0  0
 36 37  1  0  0  0
  5  8  1  0  0  0
  8  9  1  0  0  0
  9 10  2  0  0  0
 10 11  1  0  0  0
 11 12  2  0  0  0
 12 13  1  0  0  0
 13 14  2  0  0  0
 14 15  1  0  0  0
 15 16  2  0  0  0
 16 17  1  0  0  0
 17 18  1  0  0  0
 18 19  1  0  0  0
 19 20  2  0  0  0
 19 21  1  0  0  0
 21 22  2  0  0  0
 22 23  1  0  0  0
 23 24  2  0  0  0
 24 25  1  0  0  0
 25 26  2  0  0  0
 26 27  1  0  0  0
 27 28  2  0  0  0
 28 29  1  0  0  0
 29 30  1  0  0  0
 30 31  2  0  0  0
  7  1  1  0  0  0
 31  8  1  0  0  0
 29  3  1  0  0  0
 14  9  1  0  0  0
 31 15  1  0  0  0
 21 16  1  0  0  0
 30 22  1  0  0  0
 28 23  1  0  0  0
 34 35  1  0  0  0
 18 32  1  0  0  0
M  END
> <minimizedAffinity>
-0.97691

> <CNNscore>
0.1492904127

> <CNNaffinity>
6.3041877747

> <CNN_VS>
0.9411547780

> <CNNaffinity_variance>
0.3365430832

$$$$
[H]OC(=O)C([H])([H])C([H])([H])C([H])([H])c1c([H])c(C([H])([H])[H])c2c(c1[H])c1nn([H])c(C([H])([H])[H])c1c(=O)n2C([H])([H])C(F)(F)F


 29 31  0  0  0  0  0  0  0  0999 V2000
   49.4332   -2.7091   -6.7624 C   0  0  0  0  0  0  0  0  0  0  0  0
   50.7165   -2.8081   -7.4395 C   0  0  0  0  0  0  0  0  0  0  0  0
   51.1411   -2.0759   -8.4725 N   0  0  0  0  0  0  0  0  0  0  0  0
   52.3677   -2.4454   -8.8290 N   0  0  0  0  0  0  0  0  0  0  0  0
   52.7454   -3.4575   -7.9885 C   0  0  0  0  0  0  0  0  0  0  0  0
   51.7264   -3.6751   -7.1379 C   0  0  0  0  0  0  0  0  0  0  0  0
   51.8589   -4.6471   -6.1976 C   0  0  0  0  0  0  0  0  0  0  0  0
   50.8747   -4.8482   -5.3834 O   0  0  0  0  0  0  0  0  0  0  0  0
   52.9745   -5.4509   -6.0322 N   0  0  0  0  0  0  0  0  0  0  0  0
   53.9917   -5.2184   -6.8780 C   0  0  0  0  0  0  0  0  0  0  0  0
   55.1685   -5.9215   -6.7628 C   0  0  0  0  0  0  0  0  0  0  0  0
   55.4264   -6.8374   -5.6748 C   0  0  0  0  0  0  0  0  0  0  0  0
   56.2076   -5.5987   -7.6782 C   0  0  0  0  0  0  0  0  0  0  0  0
   56.1024   -4.6411   -8.6430 C   0  0  0  0  0  0  0  0  0  0  0  0
   54.9297   -3.9505   -8.7304 C   0  0  0  0  0  0  0  0  0  0  0  0
   53.8803   -4.2175   -7.8685 C   0  0  0  0  0  0  0  0  0  0  0  0
   50.6273   -1.3173   -8.9618 H   0  0  0  0  0  0  0  0  0  0  0  0
   52.9720   -6.4964   -5.0876 C   0  0  0  0  0  0  0  0  0  0  0  0
   53.1202   -6.1051   -3.6372 C   0  0  0  0  0  0  0  0  0  0  0  0
   52.0259   -5.7527   -2.9294 F   0  0  0  0  0  0  0  0  0  0  0  0
   53.7003   -7.1885   -2.9192 F   0  0  0  0  0  0  0  0  0  0  0  0
   54.0439   -5.1158   -3.3588 F   0  0  0  0  0  0  0  0  0  0  0  0
   57.2149   -4.3620   -9.5578 C   0  0  0  0  0  0  0  0  0  0  0  0
   56.8750   -4.6491  -11.0017 C   0  0  0  0  0  0  0  0  0  0  0  0
   57.3518   -3.4451  -11.8199 C   0  0  0  0  0  0  0  0  0  0  0  0
   58.4266   -3.8537  -12.7585 C   0  0  0  0  0  0  0  0  0  0  0  0
   58.2939   -3.4637  -14.0805 O   0  0  0  0  0  0  0  0  0  0  0  0
   59.4161   -4.5185  -12.4000 O   0  0  0  0  0  0  0  0  0  0  0  0
   57.5606   -2.8697  -14.4178 H   0  0  0  0  0  0  0  0  0  0  0  0
  1  2  1  0  0  0
  2  3  1  0  0  0
  3  4  1  0  0  0
  4  5  2  0  0  0
  5  6  1  0  0  0
  6  7  1  0  0  0
  7  8  2  0  0  0
  7  9  1  0  0  0
  9 18  1  0  0  0
 18 19  1  0  0  0
 19 20  1  0  0  0
 19 21  1  0  0  0
 19 22  1  0  0  0
  9 10  1  0  0  0
 10 11  2  0  0  0
 11 12  1  0  0  0
 11 13  1  0  0  0
 13 14  2  0  0  0
 14 23  1  0  0  0
 23 24  1  0  0  0
 24 25  1  0  0  0
 25 26  1  0  0  0
 26 27  1  0  0  0
 26 28  2  0  0  0
 14 15  1  0  0  0
 15 16  2  0  0  0
  6  2  2  0  0  0
 16 10  1  0  0  0
 16  5  1  0  0  0
  3 17  1  0  0  0
 27 29  1  0  0  0
M  END
> <minimizedAffinity>
-10.03889

> <CNNscore>
0.9560113549

> <CNNaffinity>
7.4945960045

> <CNN_VS>
7.1649188995

> <CNNaffinity_variance>
0.1569962502

$$$$
[H]OC(=O)C([H])([H])C([H])([H])C([H])([H])c1c([H])c(C([H])([H])[H])c2c(c1[H])c1nn([H])c(C([H])([H])[H])c1c(=O)n2C([H])([H])C(F)(F)F


 29 31  0  0  0  0  0  0  0  0999 V2000
   50.4947   -3.5189   -6.6640 C   0  0  0  0  0  0  0  0  0  0  0  0
   51.4992   -3.3568   -7.7033 C   0  0  0  0  0  0  0  0  0  0  0  0
   51.3866   -2.6470   -8.8289 N   0  0  0  0  0  0  0  0  0  0  0  0
   52.5065   -2.7278   -9.5412 N   0  0  0  0  0  0  0  0  0  0  0  0
   53.3738   -3.5231   -8.8422 C   0  0  0  0  0  0  0  0  0  0  0  0
   52.7484   -3.9059   -7.7147 C   0  0  0  0  0  0  0  0  0  0  0  0
   53.4094   -4.7149   -6.8455 C   0  0  0  0  0  0  0  0  0  0  0  0
   52.8008   -5.0766   -5.7636 O   0  0  0  0  0  0  0  0  0  0  0  0
   54.6985   -5.1900   -7.0202 N   0  0  0  0  0  0  0  0  0  0  0  0
   55.3196   -4.7928   -8.1429 C   0  0  0  0  0  0  0  0  0  0  0  0
   56.6228   -5.1605   -8.3858 C   0  0  0  0  0  0  0  0  0  0  0  0
   57.4269   -5.8690   -7.4161 C   0  0  0  0  0  0  0  0  0  0  0  0
   57.2190   -4.6778   -9.5830 C   0  0  0  0  0  0  0  0  0  0  0  0
   56.5798   -3.8783  -10.4836 C   0  0  0  0  0  0  0  0  0  0  0  0
   55.2920   -3.5187  -10.2153 C   0  0  0  0  0  0  0  0  0  0  0  0
   54.6554   -3.9558   -9.0668 C   0  0  0  0  0  0  0  0  0  0  0  0
   50.5664   -2.0952   -9.1477 H   0  0  0  0  0  0  0  0  0  0  0  0
   55.2569   -6.1033   -6.1040 C   0  0  0  0  0  0  0  0  0  0  0  0
   55.7395   -5.5408   -4.7889 C   0  0  0  0  0  0  0  0  0  0  0  0
   56.0113   -4.2221   -4.6904 F   0  0  0  0  0  0  0  0  0  0  0  0
   54.7643   -5.8004   -3.7851 F   0  0  0  0  0  0  0  0  0  0  0  0
   56.8350   -6.1618   -4.2199 F   0  0  0  0  0  0  0  0  0  0  0  0
   57.2555   -3.4189  -11.7022 C   0  0  0  0  0  0  0  0  0  0  0  0
   57.1620   -4.4128  -12.8365 C   0  0  0  0  0  0  0  0  0  0  0  0
   56.4018   -3.7221  -13.9729 C   0  0  0  0  0  0  0  0  0  0  0  0
   57.2300   -3.6951  -15.2044 C   0  0  0  0  0  0  0  0  0  0  0  0
   58.1595   -2.6753  -15.3193 O   0  0  0  0  0  0  0  0  0  0  0  0
   57.1153   -4.5403  -16.1110 O   0  0  0  0  0  0  0  0  0  0  0  0
   58.3500   -2.0076  -14.5965 H   0  0  0  0  0  0  0  0  0  0  0  0
  1  2  1  0  0  0
  2  3  1  0  0  0
  3  4  1  0  0  0
  4  5  2  0  0  0
  5  6  1  0  0  0
  6  7  1  0  0  0
  7  8  2  0  0  0
  7  9  1  0  0  0
  9 18  1  0  0  0
 18 19  1  0  0  0
 19 20  1  0  0  0
 19 21  1  0  0  0
 19 22  1  0  0  0
  9 10  1  0  0  0
 10 11  2  0  0  0
 11 12  1  0  0  0
 11 13  1  0  0  0
 13 14  2  0  0  0
 14 23  1  0  0  0
 23 24  1  0  0  0
 24 25  1  0  0  0
 25 26  1  0  0  0
 26 27  1  0  0  0
 26 28  2  0  0  0
 14 15  1  0  0  0
 15 16  2  0  0  0
  6  2  2  0  0  0
 16 10  1  0  0  0
 16  5  1  0  0  0
  3 17  1  0  0  0
 27 29  1  0  0  0
M  END
> <minimizedAffinity>
-9.13401

> <CNNscore>
0.9436926246

> <CNNaffinity>
7.2687292099

> <CNN_VS>
6.8594460487

> <CNNaffinity_variance>
0.0951621681

$$$$
[H]OC(=O)C([H])([H])C([H])([H])C([H])([H])c1c([H])c(C([H])([H])[H])c2c(c1[H])c1nn([H])c(C([H])([H])[H])c1c(=O)n2C([H])([H])C(F)(F)F


 29 31  0  0  0  0  0  0  0  0999 V2000
   56.2238   -4.3864   -9.9575 C   0  0  0  0  0  0  0  0  0  0  0  0
   54.9260   -3.9307   -9.4848 C   0  0  0  0  0  0  0  0  0  0  0  0
   54.1394   -3.0120  -10.0511 N   0  0  0  0  0  0  0  0  0  0  0  0
   53.0274   -2.8525   -9.3397 N   0  0  0  0  0  0  0  0  0  0  0  0
   53.1046   -3.7055   -8.2720 C   0  0  0  0  0  0  0  0  0  0  0  0
   54.2733   -4.3643   -8.3676 C   0  0  0  0  0  0  0  0  0  0  0  0
   54.5874   -5.2761   -7.4101 C   0  0  0  0  0  0  0  0  0  0  0  0
   55.7123   -5.9055   -7.5109 O   0  0  0  0  0  0  0  0  0  0  0  0
   53.7935   -5.5956   -6.3212 N   0  0  0  0  0  0  0  0  0  0  0  0
   52.6230   -4.9417   -6.2405 C   0  0  0  0  0  0  0  0  0  0  0  0
   51.7341   -5.2260   -5.2298 C   0  0  0  0  0  0  0  0  0  0  0  0
   51.9391   -6.3063   -4.2918 C   0  0  0  0  0  0  0  0  0  0  0  0
   50.5053   -4.5105   -5.2285 C   0  0  0  0  0  0  0  0  0  0  0  0
   50.1654   -3.5788   -6.1639 C   0  0  0  0  0  0  0  0  0  0  0  0
   51.0587   -3.3221   -7.1619 C   0  0  0  0  0  0  0  0  0  0  0  0
   52.2723   -3.9852   -7.2189 C   0  0  0  0  0  0  0  0  0  0  0  0
   54.3232   -2.4726  -10.9195 H   0  0  0  0  0  0  0  0  0  0  0  0
   54.2565   -6.4862   -5.3323 C   0  0  0  0  0  0  0  0  0  0  0  0
   55.3273   -5.9733   -4.4002 C   0  0  0  0  0  0  0  0  0  0  0  0
   55.5350   -4.6434   -4.2951 F   0  0  0  0  0  0  0  0  0  0  0  0
   55.0448   -6.4161   -3.0773 F   0  0  0  0  0  0  0  0  0  0  0  0
   56.5913   -6.5075   -4.5630 F   0  0  0  0  0  0  0  0  0  0  0  0
   48.8799   -2.8746   -6.0996 C   0  0  0  0  0  0  0  0  0  0  0  0
   48.4963   -2.4785   -4.6929 C   0  0  0  0  0  0  0  0  0  0  0  0
   47.0227   -2.8547   -4.5099 C   0  0  0  0  0  0  0  0  0  0  0  0
   46.8801   -3.8696   -3.4362 C   0  0  0  0  0  0  0  0  0  0  0  0
   45.6403   -3.9785   -2.8293 O   0  0  0  0  0  0  0  0  0  0  0  0
   47.8179   -4.6048   -3.0766 O   0  0  0  0  0  0  0  0  0  0  0  0
   44.8284   -3.4677   -3.1197 H   0  0  0  0  0  0  0  0  0  0  0  0
  1  2  1  0  0  0
  2  3  1  0  0  0
  3  4  1  0  0  0
  4  5  2  0  0  0
  5  6  1  0  0  0
  6  7  1  0  0  0
  7  8  2  0  0  0
  7  9  1  0  0  0
  9 18  1  0  0  0
 18 19  1  0  0  0
 19 20  1  0  0  0
 19 21  1  0  0  0
 19 22  1  0  0  0
  9 10  1  0  0  0
 10 11  2  0  0  0
 11 12  1  0  0  0
 11 13  1  0  0  0
 13 14  2  0  0  0
 14 23  1  0  0  0
 23 24  1  0  0  0
 24 25  1  0  0  0
 25 26  1  0  0  0
 26 27  1  0  0  0
 26 28  2  0  0  0
 14 15  1  0  0  0
 15 16  2  0  0  0
  6  2  2  0  0  0
 16 10  1  0  0  0
 16  5  1  0  0  0
  3 17  1  0  0  0
 27 29  1  0  0  0
M  END
> <minimizedAffinity>
-9.92270

> <CNNscore>
0.7611255646

> <CNNaffinity>
7.2773604393

> <CNN_VS>
5.5389852524

> <CNNaffinity_variance>
0.2925379574

$$$$
[H]OC(=O)C([H])([H])C([H])([H])C([H])([H])c1c([H])c(C([H])([H])[H])c2c(c1[H])c1nn([H])c(C([H])([H])[H])c1c(=O)n2C([H])([H])C(F)(F)F


 29 31  0  0  0  0  0  0  0  0999 V2000
   48.2420   -2.8635   -4.8957 C   0  0  0  0  0  0  0  0  0  0  0  0
   49.2999   -2.8711   -5.8938 C   0  0  0  0  0  0  0  0  0  0  0  0
   49.4044   -2.0779   -6.9631 N   0  0  0  0  0  0  0  0  0  0  0  0
   50.5037   -2.3711   -7.6514 N   0  0  0  0  0  0  0  0  0  0  0  0
   51.1305   -3.3957   -6.9951 C   0  0  0  0  0  0  0  0  0  0  0  0
   50.3854   -3.6977   -5.9168 C   0  0  0  0  0  0  0  0  0  0  0  0
   50.8014   -4.6986   -5.0971 C   0  0  0  0  0  0  0  0  0  0  0  0
   50.0796   -4.9809   -4.0622 O   0  0  0  0  0  0  0  0  0  0  0  0
   51.9500   -5.4514   -5.2760 N   0  0  0  0  0  0  0  0  0  0  0  0
   52.6940   -5.1348   -6.3486 C   0  0  0  0  0  0  0  0  0  0  0  0
   53.8843   -5.7821   -6.5868 C   0  0  0  0  0  0  0  0  0  0  0  0
   54.4585   -6.7265   -5.6555 C   0  0  0  0  0  0  0  0  0  0  0  0
   54.6273   -5.3715   -7.7275 C   0  0  0  0  0  0  0  0  0  0  0  0
   54.2316   -4.3827   -8.5787 C   0  0  0  0  0  0  0  0  0  0  0  0
   53.0532   -3.7487   -8.3154 C   0  0  0  0  0  0  0  0  0  0  0  0
   52.2838   -4.1021   -7.2206 C   0  0  0  0  0  0  0  0  0  0  0  0
   48.7502   -1.3271   -7.2583 H   0  0  0  0  0  0  0  0  0  0  0  0
   52.2400   -6.5325   -4.4202 C   0  0  0  0  0  0  0  0  0  0  0  0
   52.8033   -6.1941   -3.0612 C   0  0  0  0  0  0  0  0  0  0  0  0
   53.4099   -5.0030   -2.8716 F   0  0  0  0  0  0  0  0  0  0  0  0
   51.7565   -6.2412   -2.0979 F   0  0  0  0  0  0  0  0  0  0  0  0
   53.6732   -7.1154   -2.5097 F   0  0  0  0  0  0  0  0  0  0  0  0
   55.0471   -4.0120   -9.7406 C   0  0  0  0  0  0  0  0  0  0  0  0
   56.5245   -3.9572   -9.4285 C   0  0  0  0  0  0  0  0  0  0  0  0
   57.2238   -4.8970  -10.4154 C   0  0  0  0  0  0  0  0  0  0  0  0
   57.5443   -4.1769  -11.6731 C   0  0  0  0  0  0  0  0  0  0  0  0
   57.4175   -2.7980  -11.6624 O   0  0  0  0  0  0  0  0  0  0  0  0
   57.9135   -4.7618  -12.7080 O   0  0  0  0  0  0  0  0  0  0  0  0
   57.1942   -2.2630  -10.8450 H   0  0  0  0  0  0  0  0  0  0  0  0
  1  2  1  0  0  0
  2  3  1  0  0  0
  3  4  1  0  0  0
  4  5  2  0  0  0
  5  6  1  0  0  0
  6  7  1  0  0  0
  7  8  2  0  0  0
  7  9  1  0  0  0
  9 18  1  0  0  0
 18 19  1  0  0  0
 19 20  1  0  0  0
 19 21  1  0  0  0
 19 22  1  0  0  0
  9 10  1  0  0  0
 10 11  2  0  0  0
 11 12  1  0  0  0
 11 13  1  0  0  0
 13 14  2  0  0  0
 14 23  1  0  0  0
 23 24  1  0  0  0
 24 25  1  0  0  0
 25 26  1  0  0  0
 26 27  1  0  0  0
 26 28  2  0  0  0
 14 15  1  0  0  0
 15 16  2  0  0  0
  6  2  2  0  0  0
 16 10  1  0  0  0
 16  5  1  0  0  0
  3 17  1  0  0  0
 27 29  1  0  0  0
M  END
> <minimizedAffinity>
-9.95451

> <CNNscore>
0.6372151375

> <CNNaffinity>
7.2114515305

> <CNN_VS>
4.5952463150

> <CNNaffinity_variance>
0.2465282381

$$$$
[H]OC(=O)C([H])([H])C([H])([H])C([H])([H])c1c([H])c(C([H])([H])[H])c2c(c1[H])c1nn([H])c(C([H])([H])[H])c1c(=O)n2C([H])([H])C(F)(F)F


 29 31  0  0  0  0  0  0  0  0999 V2000
   64.0371   -5.5196   -8.0837 C   0  0  0  0  0  0  0  0  0  0  0  0
   64.4986   -6.5707   -7.1907 C   0  0  0  0  0  0  0  0  0  0  0  0
   65.3998   -6.4581   -6.2117 N   0  0  0  0  0  0  0  0  0  0  0  0
   65.5719   -7.6282   -5.6039 N   0  0  0  0  0  0  0  0  0  0  0  0
   64.7455   -8.5290   -6.2195 C   0  0  0  0  0  0  0  0  0  0  0  0
   64.0896   -7.8726   -7.1932 C   0  0  0  0  0  0  0  0  0  0  0  0
   63.2027   -8.5605   -7.9594 C   0  0  0  0  0  0  0  0  0  0  0  0
   62.5759   -7.9209   -8.8921 O   0  0  0  0  0  0  0  0  0  0  0  0
   62.9065   -9.9065   -7.8237 N   0  0  0  0  0  0  0  0  0  0  0  0
   63.5571  -10.5510   -6.8411 C   0  0  0  0  0  0  0  0  0  0  0  0
   63.2938  -11.8764   -6.5834 C   0  0  0  0  0  0  0  0  0  0  0  0
   62.2375  -12.6053   -7.2482 C   0  0  0  0  0  0  0  0  0  0  0  0
   64.0037  -12.4804   -5.5096 C   0  0  0  0  0  0  0  0  0  0  0  0
   64.9110  -11.8241   -4.7318 C   0  0  0  0  0  0  0  0  0  0  0  0
   65.1470  -10.5081   -5.0001 C   0  0  0  0  0  0  0  0  0  0  0  0
   64.4880   -9.8626   -6.0319 C   0  0  0  0  0  0  0  0  0  0  0  0
   65.9187   -5.6046   -5.9267 H   0  0  0  0  0  0  0  0  0  0  0  0
   62.0423  -10.5464   -8.7342 C   0  0  0  0  0  0  0  0  0  0  0  0
   62.6363  -10.9697  -10.0558 C   0  0  0  0  0  0  0  0  0  0  0  0
   63.8412  -11.5783  -10.0777 F   0  0  0  0  0  0  0  0  0  0  0  0
   61.7455  -11.8747  -10.6987 F   0  0  0  0  0  0  0  0  0  0  0  0
   62.7255   -9.9939  -11.0302 F   0  0  0  0  0  0  0  0  0  0  0  0
   65.6109  -12.5113   -3.6407 C   0  0  0  0  0  0  0  0  0  0  0  0
   64.6892  -13.3517   -2.7880 C   0  0  0  0  0  0  0  0  0  0  0  0
   64.3402  -12.5167   -1.5522 C   0  0  0  0  0  0  0  0  0  0  0  0
   62.8677  -12.3861   -1.4182 C   0  0  0  0  0  0  0  0  0  0  0  0
   62.2691  -11.3051   -2.0430 O   0  0  0  0  0  0  0  0  0  0  0  0
   62.1757  -13.1987   -0.7777 O   0  0  0  0  0  0  0  0  0  0  0  0
   62.7583  -10.6570   -2.6306 H   0  0  0  0  0  0  0  0  0  0  0  0
  1  2  1  0  0  0
  2  3  1  0  0  0
  3  4  1  0  0  0
  4  5  2  0  0  0
  5  6  1  0  0  0
  6  7  1  0  0  0
  7  8  2  0  0  0
  7  9  1  0  0  0
  9 18  1  0  0  0
 18 19  1  0  0  0
 19 20  1  0  0  0
 19 21  1  0  0  0
 19 22  1  0  0  0
  9 10  1  0  0  0
 10 11  2  0  0  0
 11 12  1  0  0  0
 11 13  1  0  0  0
 13 14  2  0  0  0
 14 23  1  0  0  0
 23 24  1  0  0  0
 24 25  1  0  0  0
 25 26  1  0  0  0
 26 27  1  0  0  0
 26 28  2  0  0  0
 14 15  1  0  0  0
 15 16  2  0  0  0
  6  2  2  0  0  0
 16 10  1  0  0  0
 16  5  1  0  0  0
  3 17  1  0  0  0
 27 29  1  0  0  0
M  END
> <minimizedAffinity>
-1.90432

> <CNNscore>
0.6294133663

> <CNNaffinity>
5.1835136414

> <CNN_VS>
3.2625727654

> <CNNaffinity_variance>
0.8833093643

$$$$
[H]OC(=O)C([H])([H])C([H])([H])C([H])([H])c1c([H])c(C([H])([H])[H])c2c(c1[H])c1nn([H])c(C([H])([H])[H])c1c(=O)n2C([H])([H])C(F)(F)F


 29 31  0  0  0  0  0  0  0  0999 V2000
   48.3075   -2.8180   -5.1653 C   0  0  0  0  0  0  0  0  0  0  0  0
   49.4274   -2.8922   -6.0902 C   0  0  0  0  0  0  0  0  0  0  0  0
   49.6225   -2.1465   -7.1807 N   0  0  0  0  0  0  0  0  0  0  0  0
   50.7560   -2.4943   -7.7828 N   0  0  0  0  0  0  0  0  0  0  0  0
   51.3110   -3.5059   -7.0466 C   0  0  0  0  0  0  0  0  0  0  0  0
   50.4896   -3.7451   -6.0087 C   0  0  0  0  0  0  0  0  0  0  0  0
   50.8243   -4.7213   -5.1245 C   0  0  0  0  0  0  0  0  0  0  0  0
   50.0293   -4.9432   -4.1292 O   0  0  0  0  0  0  0  0  0  0  0  0
   51.9614   -5.5085   -5.1973 N   0  0  0  0  0  0  0  0  0  0  0  0
   52.7818   -5.2544   -6.2300 C   0  0  0  0  0  0  0  0  0  0  0  0
   53.9673   -5.9395   -6.3633 C   0  0  0  0  0  0  0  0  0  0  0  0
   54.4540   -6.8585   -5.3596 C   0  0  0  0  0  0  0  0  0  0  0  0
   54.7936   -5.5944   -7.4678 C   0  0  0  0  0  0  0  0  0  0  0  0
   54.4809   -4.6321   -8.3816 C   0  0  0  0  0  0  0  0  0  0  0  0
   53.3054   -3.9594   -8.2220 C   0  0  0  0  0  0  0  0  0  0  0  0
   52.4571   -4.2487   -7.1673 C   0  0  0  0  0  0  0  0  0  0  0  0
   49.0094   -1.3928   -7.5479 H   0  0  0  0  0  0  0  0  0  0  0  0
   52.1659   -6.5601   -4.2822 C   0  0  0  0  0  0  0  0  0  0  0  0
   52.6284   -6.1782   -2.8969 C   0  0  0  0  0  0  0  0  0  0  0  0
   53.4593   -7.0021   -2.2236 F   0  0  0  0  0  0  0  0  0  0  0  0
   53.3069   -4.9286   -2.9602 F   0  0  0  0  0  0  0  0  0  0  0  0
   51.6400   -5.8642   -1.9837 F   0  0  0  0  0  0  0  0  0  0  0  0
   55.3800   -4.3294   -9.5007 C   0  0  0  0  0  0  0  0  0  0  0  0
   56.8288   -4.2355   -9.0822 C   0  0  0  0  0  0  0  0  0  0  0  0
   57.6334   -5.0907  -10.0659 C   0  0  0  0  0  0  0  0  0  0  0  0
   58.7820   -5.7275   -9.3743 C   0  0  0  0  0  0  0  0  0  0  0  0
   59.4944   -6.6828  -10.0794 O   0  0  0  0  0  0  0  0  0  0  0  0
   59.1131   -5.4347   -8.2106 O   0  0  0  0  0  0  0  0  0  0  0  0
   59.3238   -6.9120  -11.0401 H   0  0  0  0  0  0  0  0  0  0  0  0
  1  2  1  0  0  0
  2  3  1  0  0  0
  3  4  1  0  0  0
  4  5  2  0  0  0
  5  6  1  0  0  0
  6  7  1  0  0  0
  7  8  2  0  0  0
  7  9  1  0  0  0
  9 18  1  0  0  0
 18 19  1  0  0  0
 19 20  1  0  0  0
 19 21  1  0  0  0
 19 22  1  0  0  0
  9 10  1  0  0  0
 10 11  2  0  0  0
 11 12  1  0  0  0
 11 13  1  0  0  0
 13 14  2  0  0  0
 14 23  1  0  0  0
 23 24  1  0  0  0
 24 25  1  0  0  0
 25 26  1  0  0  0
 26 27  1  0  0  0
 26 28  2  0  0  0
 14 15  1  0  0  0
 15 16  2  0  0  0
  6  2  2  0  0  0
 16 10  1  0  0  0
 16  5  1  0  0  0
  3 17  1  0  0  0
 27 29  1  0  0  0
M  END
> <minimizedAffinity>
-9.57034

> <CNNscore>
0.6227298379

> <CNNaffinity>
7.2257094383

> <CNN_VS>
4.4996647835

> <CNNaffinity_variance>
0.3552157879

$$$$
[H]OC(=O)C([H])([H])C([H])([H])C([H])([H])c1c([H])c(C([H])([H])[H])c2c(c1[H])c1nn([H])c(C([H])([H])[H])c1c(=O)n2C([H])([H])C(F)(F)F


 29 31  0  0  0  0  0  0  0  0999 V2000
   56.5593   -3.5071  -12.6539 C   0  0  0  0  0  0  0  0  0  0  0  0
   55.6993   -3.7459  -11.5056 C   0  0  0  0  0  0  0  0  0  0  0  0
   54.3860   -3.5191  -11.4215 N   0  0  0  0  0  0  0  0  0  0  0  0
   53.9338   -3.8573  -10.2177 N   0  0  0  0  0  0  0  0  0  0  0  0
   55.0030   -4.3206   -9.4996 C   0  0  0  0  0  0  0  0  0  0  0  0
   56.0839   -4.2491  -10.2968 C   0  0  0  0  0  0  0  0  0  0  0  0
   57.2844   -4.6532   -9.8045 C   0  0  0  0  0  0  0  0  0  0  0  0
   58.3176   -4.5822  -10.5786 O   0  0  0  0  0  0  0  0  0  0  0  0
   57.4989   -5.1441   -8.5274 N   0  0  0  0  0  0  0  0  0  0  0  0
   56.4118   -5.2233   -7.7425 C   0  0  0  0  0  0  0  0  0  0  0  0
   56.5040   -5.7509   -6.4753 C   0  0  0  0  0  0  0  0  0  0  0  0
   57.7149   -6.3559   -5.9687 C   0  0  0  0  0  0  0  0  0  0  0  0
   55.3039   -5.8255   -5.7164 C   0  0  0  0  0  0  0  0  0  0  0  0
   54.0869   -5.4148   -6.1737 C   0  0  0  0  0  0  0  0  0  0  0  0
   54.0193   -4.9053   -7.4368 C   0  0  0  0  0  0  0  0  0  0  0  0
   55.1519   -4.8061   -8.2260 C   0  0  0  0  0  0  0  0  0  0  0  0
   53.7632   -3.1361  -12.1593 H   0  0  0  0  0  0  0  0  0  0  0  0
   58.8020   -5.4447   -8.0837 C   0  0  0  0  0  0  0  0  0  0  0  0
   59.6651   -6.2664   -9.0103 C   0  0  0  0  0  0  0  0  0  0  0  0
   60.5080   -5.6423   -9.8604 F   0  0  0  0  0  0  0  0  0  0  0  0
   60.4856   -7.1341   -8.2357 F   0  0  0  0  0  0  0  0  0  0  0  0
   59.0115   -7.1976   -9.7947 F   0  0  0  0  0  0  0  0  0  0  0  0
   52.8881   -5.5178   -5.3341 C   0  0  0  0  0  0  0  0  0  0  0  0
   51.6496   -4.9754   -6.0084 C   0  0  0  0  0  0  0  0  0  0  0  0
   50.5294   -4.9925   -4.9638 C   0  0  0  0  0  0  0  0  0  0  0  0
   49.7251   -3.7480   -5.0512 C   0  0  0  0  0  0  0  0  0  0  0  0
   49.8868   -2.9686   -6.1841 O   0  0  0  0  0  0  0  0  0  0  0  0
   48.9315   -3.3958   -4.1591 O   0  0  0  0  0  0  0  0  0  0  0  0
   50.4541   -3.2309   -6.9676 H   0  0  0  0  0  0  0  0  0  0  0  0
  1  2  1  0  0  0
  2  3  1  0  0  0
  3  4  1  0  0  0
  4  5  2  0  0  0
  5  6  1  0  0  0
  6  7  1  0  0  0
  7  8  2  0  0  0
  7  9  1  0  0  0
  9 18  1  0  0  0
 18 19  1  0  0  0
 19 20  1  0  0  0
 19 21  1  0  0  0
 19 22  1  0  0  0
  9 10  1  0  0  0
 10 11  2  0  0  0
 11 12  1  0  0  0
 11 13  1  0  0  0
 13 14  2  0  0  0
 14 23  1  0  0  0
 23 24  1  0  0  0
 24 25  1  0  0  0
 25 26  1  0  0  0
 26 27  1  0  0  0
 26 28  2  0  0  0
 14 15  1  0  0  0
 15 16  2  0  0  0
  6  2  2  0  0  0
 16 10  1  0  0  0
 16  5  1  0  0  0
  3 17  1  0  0  0
 27 29  1  0  0  0
M  END
> <minimizedAffinity>
-5.43714

> <CNNscore>
0.5241278410

> <CNNaffinity>
6.3426504135

> <CNN_VS>
3.3243596554

> <CNNaffinity_variance>
0.3679595590

$$$$
[H]OC(=O)C([H])([H])C([H])([H])C([H])([H])c1c([H])c(C([H])([H])[H])c2c(c1[H])c1nn([H])c(C([H])([H])[H])c1c(=O)n2C([H])([H])C(F)(F)F


 29 31  0  0  0  0  0  0  0  0999 V2000
   58.7416   -5.4455   -8.6613 C   0  0  0  0  0  0  0  0  0  0  0  0
   57.3677   -4.9739   -8.7331 C   0  0  0  0  0  0  0  0  0  0  0  0
   56.8033   -4.2850   -9.7283 N   0  0  0  0  0  0  0  0  0  0  0  0
   55.5296   -4.0257   -9.4479 N   0  0  0  0  0  0  0  0  0  0  0  0
   55.2665   -4.5718   -8.2207 C   0  0  0  0  0  0  0  0  0  0  0  0
   56.3999   -5.1523   -7.7877 C   0  0  0  0  0  0  0  0  0  0  0  0
   56.3952   -5.7670   -6.5757 C   0  0  0  0  0  0  0  0  0  0  0  0
   57.4889   -6.3235   -6.1683 O   0  0  0  0  0  0  0  0  0  0  0  0
   55.3032   -5.8521   -5.7282 N   0  0  0  0  0  0  0  0  0  0  0  0
   54.1725   -5.2803   -6.1741 C   0  0  0  0  0  0  0  0  0  0  0  0
   53.0143   -5.3578   -5.4360 C   0  0  0  0  0  0  0  0  0  0  0  0
   52.9094   -6.1475   -4.2300 C   0  0  0  0  0  0  0  0  0  0  0  0
   51.8531   -4.7507   -5.9882 C   0  0  0  0  0  0  0  0  0  0  0  0
   51.8268   -4.1129   -7.1929 C   0  0  0  0  0  0  0  0  0  0  0  0
   52.9850   -4.0585   -7.9107 C   0  0  0  0  0  0  0  0  0  0  0  0
   54.1493   -4.6302   -7.4280 C   0  0  0  0  0  0  0  0  0  0  0  0
   57.2500   -3.9730  -10.6126 H   0  0  0  0  0  0  0  0  0  0  0  0
   55.4310   -6.4283   -4.4488 C   0  0  0  0  0  0  0  0  0  0  0  0
   56.0826   -5.5821   -3.3820 C   0  0  0  0  0  0  0  0  0  0  0  0
   56.1532   -4.2441   -3.5468 F   0  0  0  0  0  0  0  0  0  0  0  0
   55.3951   -5.7741   -2.1505 F   0  0  0  0  0  0  0  0  0  0  0  0
   57.3586   -5.9500   -2.9998 F   0  0  0  0  0  0  0  0  0  0  0  0
   50.5922   -3.5046   -7.7011 C   0  0  0  0  0  0  0  0  0  0  0  0
   49.4032   -3.7475   -6.8010 C   0  0  0  0  0  0  0  0  0  0  0  0
   49.2640   -2.5139   -5.9036 C   0  0  0  0  0  0  0  0  0  0  0  0
   48.5772   -2.8731   -4.6378 C   0  0  0  0  0  0  0  0  0  0  0  0
   49.2869   -3.6389   -3.7283 O   0  0  0  0  0  0  0  0  0  0  0  0
   47.4136   -2.5150   -4.3786 O   0  0  0  0  0  0  0  0  0  0  0  0
   50.2477   -3.8989   -3.8450 H   0  0  0  0  0  0  0  0  0  0  0  0
  1  2  1  0  0  0
  2  3  1  0  0  0
  3  4  1  0  0  0
  4  5  2  0  0  0
  5  6  1  0  0  0
  6  7  1  0  0  0
  7  8  2  0  0  0
  7  9  1  0  0  0
  9 18  1  0  0  0
 18 19  1  0  0  0
 19 20  1  0  0  0
 19 21  1  0  0  0
 19 22  1  0  0  0
  9 10  1  0  0  0
 10 11  2  0  0  0
 11 12  1  0  0  0
 11 13  1  0  0  0
 13 14  2  0  0  0
 14 23  1  0  0  0
 23 24  1  0  0  0
 24 25  1  0  0  0
 25 26  1  0  0  0
 26 27  1  0  0  0
 26 28  2  0  0  0
 14 15  1  0  0  0
 15 16  2  0  0  0
  6  2  2  0  0  0
 16 10  1  0  0  0
 16  5  1  0  0  0
  3 17  1  0  0  0
 27 29  1  0  0  0
M  END
> <minimizedAffinity>
-9.22134

> <CNNscore>
0.4699951112

> <CNNaffinity>
6.9129190445

> <CNN_VS>
3.2490382195

> <CNNaffinity_variance>
0.4210066199

$$$$
[H]OC(=O)C([H])([H])C([H])([H])C([H])([H])c1c([H])c(C([H])([H])[H])c2c(c1[H])c1nn([H])c(C([H])([H])[H])c1c(=O)n2C([H])([H])C(F)(F)F


 29 31  0  0  0  0  0  0  0  0999 V2000
   55.3091   -3.9499  -10.2692 C   0  0  0  0  0  0  0  0  0  0  0  0
   55.8444   -4.5269   -9.0462 C   0  0  0  0  0  0  0  0  0  0  0  0
   57.1118   -4.8725   -8.8059 N   0  0  0  0  0  0  0  0  0  0  0  0
   57.2317   -5.3683   -7.5779 N   0  0  0  0  0  0  0  0  0  0  0  0
   55.9882   -5.3390   -7.0068 C   0  0  0  0  0  0  0  0  0  0  0  0
   55.1412   -4.8212   -7.9144 C   0  0  0  0  0  0  0  0  0  0  0  0
   53.8299   -4.6915   -7.5821 C   0  0  0  0  0  0  0  0  0  0  0  0
   53.0233   -4.1915   -8.4603 O   0  0  0  0  0  0  0  0  0  0  0  0
   53.2755   -5.0517   -6.3652 N   0  0  0  0  0  0  0  0  0  0  0  0
   54.1308   -5.5565   -5.4609 C   0  0  0  0  0  0  0  0  0  0  0  0
   53.6943   -5.8924   -4.2002 C   0  0  0  0  0  0  0  0  0  0  0  0
   52.3540   -5.6110   -3.7383 C   0  0  0  0  0  0  0  0  0  0  0  0
   54.6656   -6.3950   -3.2915 C   0  0  0  0  0  0  0  0  0  0  0  0
   55.9850   -6.5525   -3.5971 C   0  0  0  0  0  0  0  0  0  0  0  0
   56.3953   -6.2026   -4.8497 C   0  0  0  0  0  0  0  0  0  0  0  0
   55.4985   -5.7072   -5.7802 C   0  0  0  0  0  0  0  0  0  0  0  0
   57.9222   -4.7871   -9.4500 H   0  0  0  0  0  0  0  0  0  0  0  0
   51.8846   -4.9660   -6.1568 C   0  0  0  0  0  0  0  0  0  0  0  0
   51.0291   -6.0145   -6.8256 C   0  0  0  0  0  0  0  0  0  0  0  0
   51.5886   -6.8562   -7.7206 F   0  0  0  0  0  0  0  0  0  0  0  0
   50.4544   -6.8524   -5.8287 F   0  0  0  0  0  0  0  0  0  0  0  0
   49.8797   -5.5650   -7.4473 F   0  0  0  0  0  0  0  0  0  0  0  0
   56.9332   -7.0811   -2.6103 C   0  0  0  0  0  0  0  0  0  0  0  0
   58.0699   -7.8513   -3.2410 C   0  0  0  0  0  0  0  0  0  0  0  0
   59.3696   -7.2725   -2.6734 C   0  0  0  0  0  0  0  0  0  0  0  0
   60.4760   -7.4380   -3.6490 C   0  0  0  0  0  0  0  0  0  0  0  0
   60.1296   -7.7711   -4.9476 O   0  0  0  0  0  0  0  0  0  0  0  0
   61.6728   -7.2897   -3.3406 O   0  0  0  0  0  0  0  0  0  0  0  0
   59.1849   -7.8351   -5.2760 H   0  0  0  0  0  0  0  0  0  0  0  0
  1  2  1  0  0  0
  2  3  1  0  0  0
  3  4  1  0  0  0
  4  5  2  0  0  0
  5  6  1  0  0  0
  6  7  1  0  0  0
  7  8  2  0  0  0
  7  9  1  0  0  0
  9 18  1  0  0  0
 18 19  1  0  0  0
 19 20  1  0  0  0
 19 21  1  0  0  0
 19 22  1  0  0  0
  9 10  1  0  0  0
 10 11  2  0  0  0
 11 12  1  0  0  0
 11 13  1  0  0  0
 13 14  2  0  0  0
 14 23  1  0  0  0
 23 24  1  0  0  0
 24 25  1  0  0  0
 25 26  1  0  0  0
 26 27  1  0  0  0
 26 28  2  0  0  0
 14 15  1  0  0  0
 15 16  2  0  0  0
  6  2  2  0  0  0
 16 10  1  0  0  0
 16  5  1  0  0  0
  3 17  1  0  0  0
 27 29  1  0  0  0
M  END
> <minimizedAffinity>
-7.72087

> <CNNscore>
0.4694629610

> <CNNaffinity>
6.6286101341

> <CNN_VS>
3.1118869781

> <CNNaffinity_variance>
0.2058482617

$$$$
[H]OC([H])([H])[C@@]1(O[H])C([H])([H])[C@@]2([H])O[C@]1(C([H])([H])[H])n1c3c([H])c([H])c([H])c([H])c3c3c4c(c5c6c([H])c([H])c([H])c([H])c6n2c5c31)C(=O)N([H])C4([H])[H]


 36 43  0  0  0  0  0  0  0  0999 V2000
   54.1690   -8.0435   -3.0283 C   0  0  0  0  0  0  0  0  0  0  0  0
   54.5461   -6.8315   -3.8091 C   0  0  0  0  0  0  0  0  0  0  0  0
   55.2457   -7.4340   -4.8911 O   0  0  0  0  0  0  0  0  0  0  0  0
   56.1976   -6.5889   -5.3491 C   0  0  0  0  0  0  0  0  0  0  0  0
   56.6865   -5.8108   -4.2032 C   0  0  0  0  0  0  0  0  0  0  0  0
   55.6035   -5.9867   -3.1620 C   0  0  0  0  0  0  0  0  0  0  0  0
   55.1590   -4.7150   -2.8329 O   0  0  0  0  0  0  0  0  0  0  0  0
   55.6802   -5.7759   -6.4575 N   0  0  0  0  0  0  0  0  0  0  0  0
   56.2889   -5.3882   -7.5650 C   0  0  0  0  0  0  0  0  0  0  0  0
   57.5738   -5.6432   -7.9689 C   0  0  0  0  0  0  0  0  0  0  0  0
   57.9976   -5.1255   -9.1867 C   0  0  0  0  0  0  0  0  0  0  0  0
   57.1506   -4.3783   -9.9644 C   0  0  0  0  0  0  0  0  0  0  0  0
   55.8377   -4.1163   -9.5545 C   0  0  0  0  0  0  0  0  0  0  0  0
   55.4321   -4.6296   -8.3568 C   0  0  0  0  0  0  0  0  0  0  0  0
   54.2436   -4.5697   -7.6651 C   0  0  0  0  0  0  0  0  0  0  0  0
   53.0245   -3.9636   -7.9080 C   0  0  0  0  0  0  0  0  0  0  0  0
   52.4791   -3.1611   -8.9880 C   0  0  0  0  0  0  0  0  0  0  0  0
   52.9886   -2.7784  -10.0425 O   0  0  0  0  0  0  0  0  0  0  0  0
   51.1304   -2.8337   -8.6393 N   0  0  0  0  0  0  0  0  0  0  0  0
   50.7852   -3.3958   -7.3562 C   0  0  0  0  0  0  0  0  0  0  0  0
   52.0284   -4.1011   -6.9592 C   0  0  0  0  0  0  0  0  0  0  0  0
   52.2165   -4.8222   -5.7853 C   0  0  0  0  0  0  0  0  0  0  0  0
   51.4548   -5.1056   -4.6957 C   0  0  0  0  0  0  0  0  0  0  0  0
   50.1625   -4.7413   -4.3954 C   0  0  0  0  0  0  0  0  0  0  0  0
   49.6071   -5.1520   -3.1800 C   0  0  0  0  0  0  0  0  0  0  0  0
   50.3795   -5.9119   -2.3200 C   0  0  0  0  0  0  0  0  0  0  0  0
   51.6775   -6.2655   -2.6450 C   0  0  0  0  0  0  0  0  0  0  0  0
   52.2428   -5.8738   -3.8347 C   0  0  0  0  0  0  0  0  0  0  0  0
   53.4730   -6.0692   -4.3806 N   0  0  0  0  0  0  0  0  0  0  0  0
   53.4231   -5.4030   -5.5832 C   0  0  0  0  0  0  0  0  0  0  0  0
   54.4403   -5.2873   -6.5050 C   0  0  0  0  0  0  0  0  0  0  0  0
   55.7018   -4.3842   -2.0772 H   0  0  0  0  0  0  0  0  0  0  0  0
   50.4500   -2.2639   -9.2114 H   0  0  0  0  0  0  0  0  0  0  0  0
   56.2168   -6.6055   -1.9519 C   0  0  0  0  0  0  0  0  0  0  0  0
   57.6026   -6.4723   -2.0450 O   0  0  0  0  0  0  0  0  0  0  0  0
   58.0589   -7.3363   -2.2099 H   0  0  0  0  0  0  0  0  0  0  0  0
  2  1  1  0  0  0
  2  3  1  0  0  0
  3  4  1  0  0  0
  4  5  1  0  0  0
  5  6  1  0  0  0
  6  7  1  0  0  0
  6 34  1  0  0  0
 34 35  1  0  0  0
  4  8  1  0  0  0
  8  9  1  0  0  0
  9 10  2  0  0  0
 10 11  1  0  0  0
 11 12  2  0  0  0
 12 13  1  0  0  0
 13 14  2  0  0  0
 14 15  1  0  0  0
 15 16  2  0  0  0
 16 17  1  0  0  0
 17 18  2  0  0  0
 17 19  1  0  0  0
 19 20  1  0  0  0
 20 21  1  0  0  0
 21 22  2  0  0  0
 22 23  1  0  0  0
 23 24  2  0  0  0
 24 25  1  0  0  0
 25 26  2  0  0  0
 26 27  1  0  0  0
 27 28  2  0  0  0
 28 29  1  0  0  0
 29 30  1  0  0  0
 30 31  2  0  0  0
  6  2  1  0  0  0
 31  8  1  0  0  0
 29  2  1  0  0  0
 14  9  1  0  0  0
 31 15  1  0  0  0
 21 16  1  0  0  0
 30 22  1  0  0  0
 28 23  1  0  0  0
  7 32  1  0  0  0
 35 36  1  0  0  0
 19 33  1  0  0  0
M  END
> <minimizedAffinity>
-13.13890

> <CNNscore>
0.8797060847

> <CNNaffinity>
7.0308732986

> <CNN_VS>
6.1851019859

> <CNNaffinity_variance>
0.0563527942

$$$$
[H]OC([H])([H])[C@@]1(O[H])C([H])([H])[C@@]2([H])O[C@]1(C([H])([H])[H])n1c3c([H])c([H])c([H])c([H])c3c3c4c(c5c6c([H])c([H])c([H])c([H])c6n2c5c31)C(=O)N([H])C4([H])[H]


 36 43  0  0  0  0  0  0  0  0999 V2000
   61.6191   -6.0613   -9.7276 C   0  0  0  0  0  0  0  0  0  0  0  0
   62.8250   -6.9368   -9.7487 C   0  0  0  0  0  0  0  0  0  0  0  0
   62.3770   -8.0060   -8.9245 O   0  0  0  0  0  0  0  0  0  0  0  0
   63.4293   -8.5605   -8.2802 C   0  0  0  0  0  0  0  0  0  0  0  0
   64.4030   -7.4914   -8.0222 C   0  0  0  0  0  0  0  0  0  0  0  0
   63.9931   -6.3943   -8.9794 C   0  0  0  0  0  0  0  0  0  0  0  0
   65.0962   -6.1312   -9.7776 O   0  0  0  0  0  0  0  0  0  0  0  0
   63.9642   -9.6967   -9.0418 N   0  0  0  0  0  0  0  0  0  0  0  0
   64.4295  -10.8531   -8.6020 C   0  0  0  0  0  0  0  0  0  0  0  0
   64.5383  -11.2951   -7.3089 C   0  0  0  0  0  0  0  0  0  0  0  0
   65.0638  -12.5621   -7.0868 C   0  0  0  0  0  0  0  0  0  0  0  0
   65.4633  -13.3498   -8.1358 C   0  0  0  0  0  0  0  0  0  0  0  0
   65.3534  -12.9011   -9.4574 C   0  0  0  0  0  0  0  0  0  0  0  0
   64.8359  -11.6553   -9.6640 C   0  0  0  0  0  0  0  0  0  0  0  0
   64.5922  -10.9176  -10.8003 C   0  0  0  0  0  0  0  0  0  0  0  0
   64.7877  -11.1466  -12.1501 C   0  0  0  0  0  0  0  0  0  0  0  0
   65.3065  -12.2526  -12.9346 C   0  0  0  0  0  0  0  0  0  0  0  0
   65.7416  -13.3515  -12.5867 O   0  0  0  0  0  0  0  0  0  0  0  0
   65.2434  -11.8676  -14.3115 N   0  0  0  0  0  0  0  0  0  0  0  0
   64.7040  -10.5360  -14.4439 C   0  0  0  0  0  0  0  0  0  0  0  0
   64.4331  -10.1480  -13.0380 C   0  0  0  0  0  0  0  0  0  0  0  0
   63.8927   -8.9381  -12.6165 C   0  0  0  0  0  0  0  0  0  0  0  0
   63.4797   -7.7997  -13.2340 C   0  0  0  0  0  0  0  0  0  0  0  0
   63.4649   -7.4679  -14.5691 C   0  0  0  0  0  0  0  0  0  0  0  0
   63.0019   -6.2047  -14.9489 C   0  0  0  0  0  0  0  0  0  0  0  0
   62.5743   -5.3308  -13.9655 C   0  0  0  0  0  0  0  0  0  0  0  0
   62.5992   -5.6882  -12.6286 C   0  0  0  0  0  0  0  0  0  0  0  0
   63.0491   -6.9250  -12.2332 C   0  0  0  0  0  0  0  0  0  0  0  0
   63.1873   -7.5100  -11.0133 N   0  0  0  0  0  0  0  0  0  0  0  0
   63.7144   -8.7509  -11.2871 C   0  0  0  0  0  0  0  0  0  0  0  0
   64.0567   -9.7221  -10.3720 C   0  0  0  0  0  0  0  0  0  0  0  0
   65.6303   -5.4238   -9.3425 H   0  0  0  0  0  0  0  0  0  0  0  0
   65.5394  -12.4458  -15.1438 H   0  0  0  0  0  0  0  0  0  0  0  0
   63.6793   -5.1738   -8.1823 C   0  0  0  0  0  0  0  0  0  0  0  0
   64.8814   -4.5945   -7.7746 O   0  0  0  0  0  0  0  0  0  0  0  0
   65.0383   -4.6863   -6.8006 H   0  0  0  0  0  0  0  0  0  0  0  0
  2  1  1  0  0  0
  2  3  1  0  0  0
  3  4  1  0  0  0
  4  5  1  0  0  0
  5  6  1  0  0  0
  6  7  1  0  0  0
  6 34  1  0  0  0
 34 35  1  0  0  0
  4  8  1  0  0  0
  8  9  1  0  0  0
  9 10  2  0  0  0
 10 11  1  0  0  0
 11 12  2  0  0  0
 12 13  1  0  0  0
 13 14  2  0  0  0
 14 15  1  0  0  0
 15 16  2  0  0  0
 16 17  1  0  0  0
 17 18  2  0  0  0
 17 19  1  0  0  0
 19 20  1  0  0  0
 20 21  1  0  0  0
 21 22  2  0  0  0
 22 23  1  0  0  0
 23 24  2  0  0  0
 24 25  1  0  0  0
 25 26  2  0  0  0
 26 27  1  0  0  0
 27 28  2  0  0  0
 28 29  1  0  0  0
 29 30  1  0  0  0
 30 31  2  0  0  0
  6  2  1  0  0  0
 31  8  1  0  0  0
 29  2  1  0  0  0
 14  9  1  0  0  0
 31 15  1  0  0  0
 21 16  1  0  0  0
 30 22  1  0  0  0
 28 23  1  0  0  0
  7 32  1  0  0  0
 35 36  1  0  0  0
 19 33  1  0  0  0
M  END
> <minimizedAffinity>
-2.71208

> <CNNscore>
0.6320461631

> <CNNaffinity>
4.8087005615

> <CNN_VS>
3.0393207073

> <CNNaffinity_variance>
0.5043185353

$$$$
[H]OC([H])([H])[C@@]1(O[H])C([H])([H])[C@@]2([H])O[C@]1(C([H])([H])[H])n1c3c([H])c([H])c([H])c([H])c3c3c4c(c5c6c([H])c([H])c([H])c([H])c6n2c5c31)C(=O)N([H])C4([H])[H]


 36 43  0  0  0  0  0  0  0  0999 V2000
   57.2081   -5.9139   -4.1576 C   0  0  0  0  0  0  0  0  0  0  0  0
   55.8147   -6.1850   -4.6117 C   0  0  0  0  0  0  0  0  0  0  0  0
   55.0808   -5.5556   -3.5684 O   0  0  0  0  0  0  0  0  0  0  0  0
   53.8976   -6.1878   -3.3942 C   0  0  0  0  0  0  0  0  0  0  0  0
   54.1065   -7.6093   -3.6996 C   0  0  0  0  0  0  0  0  0  0  0  0
   55.3960   -7.6204   -4.4902 C   0  0  0  0  0  0  0  0  0  0  0  0
   55.1073   -8.2089   -5.7123 O   0  0  0  0  0  0  0  0  0  0  0  0
   52.8436   -5.5453   -4.1903 N   0  0  0  0  0  0  0  0  0  0  0  0
   51.5774   -5.3270   -3.8800 C   0  0  0  0  0  0  0  0  0  0  0  0
   50.9117   -5.6496   -2.7259 C   0  0  0  0  0  0  0  0  0  0  0  0
   49.5665   -5.3165   -2.6250 C   0  0  0  0  0  0  0  0  0  0  0  0
   48.9219   -4.6807   -3.6550 C   0  0  0  0  0  0  0  0  0  0  0  0
   49.5992   -4.3500   -4.8349 C   0  0  0  0  0  0  0  0  0  0  0  0
   50.9200   -4.6818   -4.9232 C   0  0  0  0  0  0  0  0  0  0  0  0
   51.8656   -4.5126   -5.9090 C   0  0  0  0  0  0  0  0  0  0  0  0
   51.8380   -3.9609   -7.1769 C   0  0  0  0  0  0  0  0  0  0  0  0
   50.8218   -3.3169   -7.9895 C   0  0  0  0  0  0  0  0  0  0  0  0
   49.6365   -3.0765   -7.7542 O   0  0  0  0  0  0  0  0  0  0  0  0
   51.4324   -2.9565   -9.2325 N   0  0  0  0  0  0  0  0  0  0  0  0
   52.8186   -3.3561   -9.2538 C   0  0  0  0  0  0  0  0  0  0  0  0
   53.0041   -3.9770   -7.9195 C   0  0  0  0  0  0  0  0  0  0  0  0
   54.1861   -4.5240   -7.4326 C   0  0  0  0  0  0  0  0  0  0  0  0
   55.4424   -4.6953   -7.9226 C   0  0  0  0  0  0  0  0  0  0  0  0
   55.9747   -4.3516   -9.1439 C   0  0  0  0  0  0  0  0  0  0  0  0
   57.3112   -4.6613   -9.4126 C   0  0  0  0  0  0  0  0  0  0  0  0
   58.0528   -5.3046   -8.4380 C   0  0  0  0  0  0  0  0  0  0  0  0
   57.4941   -5.6400   -7.2168 C   0  0  0  0  0  0  0  0  0  0  0  0
   56.1830   -5.3439   -6.9312 C   0  0  0  0  0  0  0  0  0  0  0  0
   55.4025   -5.5691   -5.8405 N   0  0  0  0  0  0  0  0  0  0  0  0
   54.1749   -5.0534   -6.1862 C   0  0  0  0  0  0  0  0  0  0  0  0
   53.0322   -5.0569   -5.4167 C   0  0  0  0  0  0  0  0  0  0  0  0
   55.2585   -9.1812   -5.6301 H   0  0  0  0  0  0  0  0  0  0  0  0
   50.9700   -2.4667  -10.0455 H   0  0  0  0  0  0  0  0  0  0  0  0
   56.3781   -8.4789   -3.7677 C   0  0  0  0  0  0  0  0  0  0  0  0
   55.7998   -8.8929   -2.5673 O   0  0  0  0  0  0  0  0  0  0  0  0
   56.2165   -8.4665   -1.7758 H   0  0  0  0  0  0  0  0  0  0  0  0
  2  1  1  0  0  0
  2  3  1  0  0  0
  3  4  1  0  0  0
  4  5  1  0  0  0
  5  6  1  0  0  0
  6  7  1  0  0  0
  6 34  1  0  0  0
 34 35  1  0  0  0
  4  8  1  0  0  0
  8  9  1  0  0  0
  9 10  2  0  0  0
 10 11  1  0  0  0
 11 12  2  0  0  0
 12 13  1  0  0  0
 13 14  2  0  0  0
 14 15  1  0  0  0
 15 16  2  0  0  0
 16 17  1  0  0  0
 17 18  2  0  0  0
 17 19  1  0  0  0
 19 20  1  0  0  0
 20 21  1  0  0  0
 21 22  2  0  0  0
 22 23  1  0  0  0
 23 24  2  0  0  0
 24 25  1  0  0  0
 25 26  2  0  0  0
 26 27  1  0  0  0
 27 28  2  0  0  0
 28 29  1  0  0  0
 29 30  1  0  0  0
 30 31  2  0  0  0
  6  2  1  0  0  0
 31  8  1  0  0  0
 29  2  1  0  0  0
 14  9  1  0  0  0
 31 15  1  0  0  0
 21 16  1  0  0  0
 30 22  1  0  0  0
 28 23  1  0  0  0
  7 32  1  0  0  0
 35 36  1  0  0  0
 19 33  1  0  0  0
M  END
> <minimizedAffinity>
-9.91533

> <CNNscore>
0.4059527218

> <CNNaffinity>
6.4354257584

> <CNN_VS>
2.6124784946

> <CNNaffinity_variance>
0.0992594436

$$$$
[H]OC([H])([H])[C@@]1(O[H])C([H])([H])[C@@]2([H])O[C@]1(C([H])([H])[H])n1c3c([H])c([H])c([H])c([H])c3c3c4c(c5c6c([H])c([H])c([H])c([H])c6n2c5c31)C(=O)N([H])C4([H])[H]


 36 43  0  0  0  0  0  0  0  0999 V2000
   52.9566   -4.2282  -10.7033 C   0  0  0  0  0  0  0  0  0  0  0  0
   53.9481   -4.0587   -9.6036 C   0  0  0  0  0  0  0  0  0  0  0  0
   53.5178   -5.0814   -8.7138 O   0  0  0  0  0  0  0  0  0  0  0  0
   53.7989   -4.7281   -7.4386 C   0  0  0  0  0  0  0  0  0  0  0  0
   53.6849   -3.2664   -7.3494 C   0  0  0  0  0  0  0  0  0  0  0  0
   53.7585   -2.8124   -8.7904 C   0  0  0  0  0  0  0  0  0  0  0  0
   54.8307   -1.9372   -8.8767 O   0  0  0  0  0  0  0  0  0  0  0  0
   55.1049   -5.2604   -7.0284 N   0  0  0  0  0  0  0  0  0  0  0  0
   55.4747   -5.7609   -5.8621 C   0  0  0  0  0  0  0  0  0  0  0  0
   54.7301   -5.9111   -4.7211 C   0  0  0  0  0  0  0  0  0  0  0  0
   55.3398   -6.4690   -3.6041 C   0  0  0  0  0  0  0  0  0  0  0  0
   56.6538   -6.8593   -3.6434 C   0  0  0  0  0  0  0  0  0  0  0  0
   57.4168   -6.7072   -4.8074 C   0  0  0  0  0  0  0  0  0  0  0  0
   56.8080   -6.1581   -5.8984 C   0  0  0  0  0  0  0  0  0  0  0  0
   57.2463   -5.8697   -7.1709 C   0  0  0  0  0  0  0  0  0  0  0  0
   58.4591   -6.0111   -7.8203 C   0  0  0  0  0  0  0  0  0  0  0  0
   59.7620   -6.5339   -7.4501 C   0  0  0  0  0  0  0  0  0  0  0  0
   60.1627   -7.0197   -6.3911 O   0  0  0  0  0  0  0  0  0  0  0  0
   60.6164   -6.4012   -8.5903 N   0  0  0  0  0  0  0  0  0  0  0  0
   59.9060   -5.7982   -9.6918 C   0  0  0  0  0  0  0  0  0  0  0  0
   58.5482   -5.5867   -9.1330 C   0  0  0  0  0  0  0  0  0  0  0  0
   57.4670   -5.0305   -9.8079 C   0  0  0  0  0  0  0  0  0  0  0  0
   57.2659   -4.5218  -11.0523 C   0  0  0  0  0  0  0  0  0  0  0  0
   58.1351   -4.3924  -12.1109 C   0  0  0  0  0  0  0  0  0  0  0  0
   57.6785   -3.8073  -13.2956 C   0  0  0  0  0  0  0  0  0  0  0  0
   56.3652   -3.3778  -13.3611 C   0  0  0  0  0  0  0  0  0  0  0  0
   55.5101   -3.5192  -12.2819 C   0  0  0  0  0  0  0  0  0  0  0  0
   55.9375   -4.0924  -11.1084 C   0  0  0  0  0  0  0  0  0  0  0  0
   55.3204   -4.3335   -9.9208 N   0  0  0  0  0  0  0  0  0  0  0  0
   56.2953   -4.9098   -9.1398 C   0  0  0  0  0  0  0  0  0  0  0  0
   56.1682   -5.3203   -7.8309 C   0  0  0  0  0  0  0  0  0  0  0  0
   54.4982   -1.0237   -8.7036 H   0  0  0  0  0  0  0  0  0  0  0  0
   61.6295   -6.6907   -8.6583 H   0  0  0  0  0  0  0  0  0  0  0  0
   52.5071   -2.0663   -9.1082 C   0  0  0  0  0  0  0  0  0  0  0  0
   51.5158   -2.4699   -8.2131 O   0  0  0  0  0  0  0  0  0  0  0  0
   50.8097   -3.0141   -8.6456 H   0  0  0  0  0  0  0  0  0  0  0  0
  2  1  1  0  0  0
  2  3  1  0  0  0
  3  4  1  0  0  0
  4  5  1  0  0  0
  5  6  1  0  0  0
  6  7  1  0  0  0
  6 34  1  0  0  0
 34 35  1  0  0  0
  4  8  1  0  0  0
  8  9  1  0  0  0
  9 10  2  0  0  0
 10 11  1  0  0  0
 11 12  2  0  0  0
 12 13  1  0  0  0
 13 14  2  0  0  0
 14 15  1  0  0  0
 15 16  2  0  0  0
 16 17  1  0  0  0
 17 18  2  0  0  0
 17 19  1  0  0  0
 19 20  1  0  0  0
 20 21  1  0  0  0
 21 22  2  0  0  0
 22 23  1  0  0  0
 23 24  2  0  0  0
 24 25  1  0  0  0
 25 26  2  0  0  0
 26 27  1  0  0  0
 27 28  2  0  0  0
 28 29  1  0  0  0
 29 30  1  0  0  0
 30 31  2  0  0  0
  6  2  1  0  0  0
 31  8  1  0  0  0
 29  2  1  0  0  0
 14  9  1  0  0  0
 31 15  1  0  0  0
 21 16  1  0  0  0
 30 22  1  0  0  0
 28 23  1  0  0  0
  7 32  1  0  0  0
 35 36  1  0  0  0
 19 33  1  0  0  0
M  END
> <minimizedAffinity>
-3.13274

> <CNNscore>
0.4058468938

> <CNNaffinity>
6.0742416382

> <CNN_VS>
2.4652121067

> <CNNaffinity_variance>
0.1501375139

$$$$
[H]OC([H])([H])[C@@]1(O[H])C([H])([H])[C@@]2([H])O[C@]1(C([H])([H])[H])n1c3c([H])c([H])c([H])c([H])c3c3c4c(c5c6c([H])c([H])c([H])c([H])c6n2c5c31)C(=O)N([H])C4([H])[H]


 36 43  0  0  0  0  0  0  0  0999 V2000
   55.9637   -2.3120  -11.8150 C   0  0  0  0  0  0  0  0  0  0  0  0
   56.3970   -3.6216  -11.2508 C   0  0  0  0  0  0  0  0  0  0  0  0
   57.7817   -3.3659  -11.0501 O   0  0  0  0  0  0  0  0  0  0  0  0
   58.4830   -4.5162  -11.1729 C   0  0  0  0  0  0  0  0  0  0  0  0
   57.7941   -5.3500  -12.1668 C   0  0  0  0  0  0  0  0  0  0  0  0
   56.4096   -4.7459  -12.2440 C   0  0  0  0  0  0  0  0  0  0  0  0
   55.5162   -5.7593  -11.9310 O   0  0  0  0  0  0  0  0  0  0  0  0
   58.6624   -5.1571   -9.8637 N   0  0  0  0  0  0  0  0  0  0  0  0
   59.7149   -5.7963   -9.3830 C   0  0  0  0  0  0  0  0  0  0  0  0
   60.9220   -6.0326   -9.9882 C   0  0  0  0  0  0  0  0  0  0  0  0
   61.8892   -6.7345   -9.2794 C   0  0  0  0  0  0  0  0  0  0  0  0
   61.6414   -7.1793   -8.0061 C   0  0  0  0  0  0  0  0  0  0  0  0
   60.4095   -6.9395   -7.3854 C   0  0  0  0  0  0  0  0  0  0  0  0
   59.4669   -6.2492   -8.0907 C   0  0  0  0  0  0  0  0  0  0  0  0
   58.1833   -5.8481   -7.7972 C   0  0  0  0  0  0  0  0  0  0  0  0
   57.3617   -5.9999   -6.6951 C   0  0  0  0  0  0  0  0  0  0  0  0
   57.5061   -6.6196   -5.3902 C   0  0  0  0  0  0  0  0  0  0  0  0
   58.4576   -7.2162   -4.8836 O   0  0  0  0  0  0  0  0  0  0  0  0
   56.2733   -6.4317   -4.6882 N   0  0  0  0  0  0  0  0  0  0  0  0
   55.3265   -5.7122   -5.5051 C   0  0  0  0  0  0  0  0  0  0  0  0
   56.0873   -5.4674   -6.7548 C   0  0  0  0  0  0  0  0  0  0  0  0
   55.6168   -4.7929   -7.8761 C   0  0  0  0  0  0  0  0  0  0  0  0
   54.4443   -4.1984   -8.2218 C   0  0  0  0  0  0  0  0  0  0  0  0
   53.2715   -4.0677   -7.5144 C   0  0  0  0  0  0  0  0  0  0  0  0
   52.1871   -3.4196   -8.1130 C   0  0  0  0  0  0  0  0  0  0  0  0
   52.3324   -2.9320   -9.3994 C   0  0  0  0  0  0  0  0  0  0  0  0
   53.5229   -3.0762  -10.0905 C   0  0  0  0  0  0  0  0  0  0  0  0
   54.6018   -3.7086   -9.5208 C   0  0  0  0  0  0  0  0  0  0  0  0
   55.8526   -3.9893   -9.9751 N   0  0  0  0  0  0  0  0  0  0  0  0
   56.4507   -4.6627   -8.9352 C   0  0  0  0  0  0  0  0  0  0  0  0
   57.7270   -5.1807   -8.9135 C   0  0  0  0  0  0  0  0  0  0  0  0
   55.2619   -6.2162  -12.7686 H   0  0  0  0  0  0  0  0  0  0  0  0
   56.0468   -6.7576   -3.7098 H   0  0  0  0  0  0  0  0  0  0  0  0
   56.1674   -4.3143  -13.6507 C   0  0  0  0  0  0  0  0  0  0  0  0
   56.3498   -5.4170  -14.4859 O   0  0  0  0  0  0  0  0  0  0  0  0
   57.1671   -5.3440  -15.0414 H   0  0  0  0  0  0  0  0  0  0  0  0
  2  1  1  0  0  0
  2  3  1  0  0  0
  3  4  1  0  0  0
  4  5  1  0  0  0
  5  6  1  0  0  0
  6  7  1  0  0  0
  6 34  1  0  0  0
 34 35  1  0  0  0
  4  8  1  0  0  0
  8  9  1  0  0  0
  9 10  2  0  0  0
 10 11  1  0  0  0
 11 12  2  0  0  0
 12 13  1  0  0  0
 13 14  2  0  0  0
 14 15  1  0  0  0
 15 16  2  0  0  0
 16 17  1  0  0  0
 17 18  2  0  0  0
 17 19  1  0  0  0
 19 20  1  0  0  0
 20 21  1  0  0  0
 21 22  2  0  0  0
 22 23  1  0  0  0
 23 24  2  0  0  0
 24 25  1  0  0  0
 25 26  2  0  0  0
 26 27  1  0  0  0
 27 28  2  0  0  0
 28 29  1  0  0  0
 29 30  1  0  0  0
 30 31  2  0  0  0
  6  2  1  0  0  0
 31  8  1  0  0  0
 29  2  1  0  0  0
 14  9  1  0  0  0
 31 15  1  0  0  0
 21 16  1  0  0  0
 30 22  1  0  0  0
 28 23  1  0  0  0
  7 32  1  0  0  0
 35 36  1  0  0  0
 19 33  1  0  0  0
M  END
> <minimizedAffinity>
2.74209

> <CNNscore>
0.3512608707

> <CNNaffinity>
5.9160537720

> <CNN_VS>
2.0780782700

> <CNNaffinity_variance>
0.3250520229

$$$$
[H]OC([H])([H])[C@@]1(O[H])C([H])([H])[C@@]2([H])O[C@]1(C([H])([H])[H])n1c3c([H])c([H])c([H])c([H])c3c3c4c(c5c6c([H])c([H])c([H])c([H])c6n2c5c31)C(=O)N([H])C4([H])[H]


 36 43  0  0  0  0  0  0  0  0999 V2000
   61.2432   -4.5307  -16.2301 C   0  0  0  0  0  0  0  0  0  0  0  0
   61.1313   -4.2188  -14.7771 C   0  0  0  0  0  0  0  0  0  0  0  0
   59.7807   -4.5965  -14.5396 O   0  0  0  0  0  0  0  0  0  0  0  0
   59.2621   -3.8427  -13.5432 C   0  0  0  0  0  0  0  0  0  0  0  0
   59.8899   -2.5168  -13.6192 C   0  0  0  0  0  0  0  0  0  0  0  0
   61.1243   -2.7524  -14.4610 C   0  0  0  0  0  0  0  0  0  0  0  0
   62.2094   -2.3552  -13.6942 O   0  0  0  0  0  0  0  0  0  0  0  0
   59.4208   -4.5151  -12.2471 N   0  0  0  0  0  0  0  0  0  0  0  0
   58.5855   -4.5660  -11.2239 C   0  0  0  0  0  0  0  0  0  0  0  0
   57.3444   -3.9964  -11.1039 C   0  0  0  0  0  0  0  0  0  0  0  0
   56.6421   -4.1884   -9.9204 C   0  0  0  0  0  0  0  0  0  0  0  0
   57.1780   -4.9296   -8.8987 C   0  0  0  0  0  0  0  0  0  0  0  0
   58.4453   -5.5126   -9.0185 C   0  0  0  0  0  0  0  0  0  0  0  0
   59.1262   -5.3176  -10.1850 C   0  0  0  0  0  0  0  0  0  0  0  0
   60.3604   -5.7328  -10.6311 C   0  0  0  0  0  0  0  0  0  0  0  0
   61.3766   -6.4857  -10.0715 C   0  0  0  0  0  0  0  0  0  0  0  0
   61.5652   -7.1657   -8.8027 C   0  0  0  0  0  0  0  0  0  0  0  0
   60.8257   -7.2582   -7.8217 O   0  0  0  0  0  0  0  0  0  0  0  0
   62.8561   -7.7827   -8.8353 N   0  0  0  0  0  0  0  0  0  0  0  0
   63.5168   -7.5156  -10.0898 C   0  0  0  0  0  0  0  0  0  0  0  0
   62.5187   -6.6974  -10.8213 C   0  0  0  0  0  0  0  0  0  0  0  0
   62.6703   -6.1820  -12.1038 C   0  0  0  0  0  0  0  0  0  0  0  0
   63.6532   -6.2067  -13.0425 C   0  0  0  0  0  0  0  0  0  0  0  0
   64.8958   -6.7966  -13.0131 C   0  0  0  0  0  0  0  0  0  0  0  0
   65.7400   -6.6551  -14.1184 C   0  0  0  0  0  0  0  0  0  0  0  0
   65.2945   -5.9243  -15.2052 C   0  0  0  0  0  0  0  0  0  0  0  0
   64.0397   -5.3403  -15.2104 C   0  0  0  0  0  0  0  0  0  0  0  0
   63.1932   -5.4678  -14.1355 C   0  0  0  0  0  0  0  0  0  0  0  0
   61.9434   -4.9944  -13.8837 N   0  0  0  0  0  0  0  0  0  0  0  0
   61.6532   -5.4512  -12.6189 C   0  0  0  0  0  0  0  0  0  0  0  0
   60.5003   -5.2178  -11.9018 C   0  0  0  0  0  0  0  0  0  0  0  0
   62.3822   -1.4000  -13.8752 H   0  0  0  0  0  0  0  0  0  0  0  0
   63.3003   -8.3600   -8.0711 H   0  0  0  0  0  0  0  0  0  0  0  0
   61.0429   -1.8739  -15.6632 C   0  0  0  0  0  0  0  0  0  0  0  0
   59.7028   -1.7616  -16.0351 O   0  0  0  0  0  0  0  0  0  0  0  0
   59.5002   -2.2372  -16.8805 H   0  0  0  0  0  0  0  0  0  0  0  0
  2  1  1  0  0  0
  2  3  1  0  0  0
  3  4  1  0  0  0
  4  5  1  0  0  0
  5  6  1  0  0  0
  6  7  1  0  0  0
  6 34  1  0  0  0
 34 35  1  0  0  0
  4  8  1  0  0  0
  8  9  1  0  0  0
  9 10  2  0  0  0
 10 11  1  0  0  0
 11 12  2  0  0  0
 12 13  1  0  0  0
 13 14  2  0  0  0
 14 15  1  0  0  0
 15 16  2  0  0  0
 16 17  1  0  0  0
 17 18  2  0  0  0
 17 19  1  0  0  0
 19 20  1  0  0  0
 20 21  1  0  0  0
 21 22  2  0  0  0
 22 23  1  0  0  0
 23 24  2  0  0  0
 24 25  1  0  0  0
 25 26  2  0  0  0
 26 27  1  0  0  0
 27 28  2  0  0  0
 28 29  1  0  0  0
 29 30  1  0  0  0
 30 31  2  0  0  0
  6  2  1  0  0  0
 31  8  1  0  0  0
 29  2  1  0  0  0
 14  9  1  0  0  0
 31 15  1  0  0  0
 21 16  1  0  0  0
 30 22  1  0  0  0
 28 23  1  0  0  0
  7 32  1  0  0  0
 35 36  1  0  0  0
 19 33  1  0  0  0
M  END
> <minimizedAffinity>
0.70452

> <CNNscore>
0.3013141751

> <CNNaffinity>
4.6180534363

> <CNN_VS>
1.3914849758

> <CNNaffinity_variance>
0.5053692460

$$$$
[H]OC([H])([H])[C@@]1(O[H])C([H])([H])[C@@]2([H])O[C@]1(C([H])([H])[H])n1c3c([H])c([H])c([H])c([H])c3c3c4c(c5c6c([H])c([H])c([H])c([H])c6n2c5c31)C(=O)N([H])C4([H])[H]


 36 43  0  0  0  0  0  0  0  0999 V2000
   59.0731   -4.2782  -17.3362 C   0  0  0  0  0  0  0  0  0  0  0  0
   59.3245   -3.8761  -15.9233 C   0  0  0  0  0  0  0  0  0  0  0  0
   58.2502   -4.5450  -15.2741 O   0  0  0  0  0  0  0  0  0  0  0  0
   57.8782   -3.8536  -14.1725 C   0  0  0  0  0  0  0  0  0  0  0  0
   58.0936   -2.4277  -14.4518 C   0  0  0  0  0  0  0  0  0  0  0  0
   59.0374   -2.4324  -15.6338 C   0  0  0  0  0  0  0  0  0  0  0  0
   60.1626   -1.7204  -15.2462 O   0  0  0  0  0  0  0  0  0  0  0  0
   58.5832   -4.3518  -12.9842 N   0  0  0  0  0  0  0  0  0  0  0  0
   58.1337   -4.5121  -11.7515 C   0  0  0  0  0  0  0  0  0  0  0  0
   56.8828   -4.2493  -11.2563 C   0  0  0  0  0  0  0  0  0  0  0  0
   56.6396   -4.4999   -9.9114 C   0  0  0  0  0  0  0  0  0  0  0  0
   57.6270   -4.9980   -9.1006 C   0  0  0  0  0  0  0  0  0  0  0  0
   58.9056   -5.2674   -9.6036 C   0  0  0  0  0  0  0  0  0  0  0  0
   59.1334   -5.0175  -10.9258 C   0  0  0  0  0  0  0  0  0  0  0  0
   60.2411   -5.1614  -11.7301 C   0  0  0  0  0  0  0  0  0  0  0  0
   61.5352   -5.5959  -11.5079 C   0  0  0  0  0  0  0  0  0  0  0  0
   62.2614   -6.0966  -10.3548 C   0  0  0  0  0  0  0  0  0  0  0  0
   61.8981   -6.2777   -9.1915 O   0  0  0  0  0  0  0  0  0  0  0  0
   63.5963   -6.3856  -10.7819 N   0  0  0  0  0  0  0  0  0  0  0  0
   63.7608   -6.0786  -12.1820 C   0  0  0  0  0  0  0  0  0  0  0  0
   62.4155   -5.5917  -12.5738 C   0  0  0  0  0  0  0  0  0  0  0  0
   62.0400   -5.1695  -13.8444 C   0  0  0  0  0  0  0  0  0  0  0  0
   62.6697   -5.0394  -15.0420 C   0  0  0  0  0  0  0  0  0  0  0  0
   63.9719   -5.3084  -15.3955 C   0  0  0  0  0  0  0  0  0  0  0  0
   64.3818   -5.0656  -16.7098 C   0  0  0  0  0  0  0  0  0  0  0  0
   63.4607   -4.5616  -17.6104 C   0  0  0  0  0  0  0  0  0  0  0  0
   62.1560   -4.2991  -17.2302 C   0  0  0  0  0  0  0  0  0  0  0  0
   61.7313   -4.5315  -15.9441 C   0  0  0  0  0  0  0  0  0  0  0  0
   60.5364   -4.3523  -15.3202 N   0  0  0  0  0  0  0  0  0  0  0  0
   60.7641   -4.7527  -14.0239 C   0  0  0  0  0  0  0  0  0  0  0  0
   59.8586   -4.7414  -12.9858 C   0  0  0  0  0  0  0  0  0  0  0  0
   60.0231   -0.7713  -15.4804 H   0  0  0  0  0  0  0  0  0  0  0  0
   64.3807   -6.7699  -10.1887 H   0  0  0  0  0  0  0  0  0  0  0  0
   58.3789   -1.7082  -16.7587 C   0  0  0  0  0  0  0  0  0  0  0  0
   59.3301   -0.8925  -17.3724 O   0  0  0  0  0  0  0  0  0  0  0  0
   59.1711    0.0712  -17.2057 H   0  0  0  0  0  0  0  0  0  0  0  0
  2  1  1  0  0  0
  2  3  1  0  0  0
  3  4  1  0  0  0
  4  5  1  0  0  0
  5  6  1  0  0  0
  6  7  1  0  0  0
  6 34  1  0  0  0
 34 35  1  0  0  0
  4  8  1  0  0  0
  8  9  1  0  0  0
  9 10  2  0  0  0
 10 11  1  0  0  0
 11 12  2  0  0  0
 12 13  1  0  0  0
 13 14  2  0  0  0
 14 15  1  0  0  0
 15 16  2  0  0  0
 16 17  1  0  0  0
 17 18  2  0  0  0
 17 19  1  0  0  0
 19 20  1  0  0  0
 20 21  1  0  0  0
 21 22  2  0  0  0
 22 23  1  0  0  0
 23 24  2  0  0  0
 24 25  1  0  0  0
 25 26  2  0  0  0
 26 27  1  0  0  0
 27 28  2  0  0  0
 28 29  1  0  0  0
 29 30  1  0  0  0
 30 31  2  0  0  0
  6  2  1  0  0  0
 31  8  1  0  0  0
 29  2  1  0  0  0
 14  9  1  0  0  0
 31 15  1  0  0  0
 21 16  1  0  0  0
 30 22  1  0  0  0
 28 23  1  0  0  0
  7 32  1  0  0  0
 35 36  1  0  0  0
 19 33  1  0  0  0
M  END
> <minimizedAffinity>
5.19974

> <CNNscore>
0.2948720455

> <CNNaffinity>
4.6382708549

> <CNN_VS>
1.3676964045

> <CNNaffinity_variance>
0.6070107222

$$$$
[H]OC([H])([H])[C@@]1(O[H])C([H])([H])[C@@]2([H])O[C@]1(C([H])([H])[H])n1c3c([H])c([H])c([H])c([H])c3c3c4c(c5c6c([H])c([H])c([H])c([H])c6n2c5c31)C(=O)N([H])C4([H])[H]


 36 43  0  0  0  0  0  0  0  0999 V2000
   58.1290   -4.7807  -14.2509 C   0  0  0  0  0  0  0  0  0  0  0  0
   58.3685   -4.4639  -12.8144 C   0  0  0  0  0  0  0  0  0  0  0  0
   57.3281   -5.2226  -12.2102 O   0  0  0  0  0  0  0  0  0  0  0  0
   56.9305   -4.6243  -11.0639 C   0  0  0  0  0  0  0  0  0  0  0  0
   57.0807   -3.1746  -11.2466 C   0  0  0  0  0  0  0  0  0  0  0  0
   58.0185   -3.0573  -12.4276 C   0  0  0  0  0  0  0  0  0  0  0  0
   59.1124   -2.3232  -11.9945 O   0  0  0  0  0  0  0  0  0  0  0  0
   57.6624   -5.1693   -9.9130 N   0  0  0  0  0  0  0  0  0  0  0  0
   57.2261   -5.4324   -8.6933 C   0  0  0  0  0  0  0  0  0  0  0  0
   55.9670   -5.2599   -8.1796 C   0  0  0  0  0  0  0  0  0  0  0  0
   55.7412   -5.6113   -6.8544 C   0  0  0  0  0  0  0  0  0  0  0  0
   56.7537   -6.1180   -6.0806 C   0  0  0  0  0  0  0  0  0  0  0  0
   58.0407   -6.2953   -6.6025 C   0  0  0  0  0  0  0  0  0  0  0  0
   58.2512   -5.9469   -7.9051 C   0  0  0  0  0  0  0  0  0  0  0  0
   59.3605   -5.9863   -8.7189 C   0  0  0  0  0  0  0  0  0  0  0  0
   60.6737   -6.3762   -8.5284 C   0  0  0  0  0  0  0  0  0  0  0  0
   61.4268   -6.9205   -7.4129 C   0  0  0  0  0  0  0  0  0  0  0  0
   61.0772   -7.1957   -6.2640 O   0  0  0  0  0  0  0  0  0  0  0  0
   62.7714   -7.1197   -7.8606 N   0  0  0  0  0  0  0  0  0  0  0  0
   62.9157   -6.7120   -9.2369 C   0  0  0  0  0  0  0  0  0  0  0  0
   61.5481   -6.2608   -9.5930 C   0  0  0  0  0  0  0  0  0  0  0  0
   61.1485   -5.7712  -10.8316 C   0  0  0  0  0  0  0  0  0  0  0  0
   61.7663   -5.5325  -12.0187 C   0  0  0  0  0  0  0  0  0  0  0  0
   63.0776   -5.7183  -12.3914 C   0  0  0  0  0  0  0  0  0  0  0  0
   63.4703   -5.3693  -13.6869 C   0  0  0  0  0  0  0  0  0  0  0  0
   62.5235   -4.8477  -14.5501 C   0  0  0  0  0  0  0  0  0  0  0  0
   61.2101   -4.6702  -14.1511 C   0  0  0  0  0  0  0  0  0  0  0  0
   60.8021   -5.0076  -12.8830 C   0  0  0  0  0  0  0  0  0  0  0  0
   59.6031   -4.9247  -12.2466 N   0  0  0  0  0  0  0  0  0  0  0  0
   59.8544   -5.4009  -10.9807 C   0  0  0  0  0  0  0  0  0  0  0  0
   58.9539   -5.5003   -9.9428 C   0  0  0  0  0  0  0  0  0  0  0  0
   58.9296   -1.3678  -12.1639 H   0  0  0  0  0  0  0  0  0  0  0  0
   63.5748   -7.5075   -7.2958 H   0  0  0  0  0  0  0  0  0  0  0  0
   57.3232   -2.2892  -13.5001 C   0  0  0  0  0  0  0  0  0  0  0  0
   56.0153   -2.7643  -13.6028 O   0  0  0  0  0  0  0  0  0  0  0  0
   55.8584   -3.2727  -14.4388 H   0  0  0  0  0  0  0  0  0  0  0  0
  2  1  1  0  0  0
  2  3  1  0  0  0
  3  4  1  0  0  0
  4  5  1  0  0  0
  5  6  1  0  0  0
  6  7  1  0  0  0
  6 34  1  0  0  0
 34 35  1  0  0  0
  4  8  1  0  0  0
  8  9  1  0  0  0
  9 10  2  0  0  0
 10 11  1  0  0  0
 11 12  2  0  0  0
 12 13  1  0  0  0
 13 14  2  0  0  0
 14 15  1  0  0  0
 15 16  2  0  0  0
 16 17  1  0  0  0
 17 18  2  0  0  0
 17 19  1  0  0  0
 19 20  1  0  0  0
 20 21  1  0  0  0
 21 22  2  0  0  0
 22 23  1  0  0  0
 23 24  2  0  0  0
 24 25  1  0  0  0
 25 26  2  0  0  0
 26 27  1  0  0  0
 27 28  2  0  0  0
 28 29  1  0  0  0
 29 30  1  0  0  0
 30 31  2  0  0  0
  6  2  1  0  0  0
 31  8  1  0  0  0
 29  2  1  0  0  0
 14  9  1  0  0  0
 31 15  1  0  0  0
 21 16  1  0  0  0
 30 22  1  0  0  0
 28 23  1  0  0  0
  7 32  1  0  0  0
 35 36  1  0  0  0
 19 33  1  0  0  0
M  END
> <minimizedAffinity>
10.76409

> <CNNscore>
0.2940688431

> <CNNaffinity>
5.0710725784

> <CNN_VS>
1.4912444353

> <CNNaffinity_variance>
0.1874392480

$$$$
[H]OC([H])([H])[C@@]1(O[H])C([H])([H])[C@@]2([H])O[C@]1(C([H])([H])[H])n1c3c([H])c([H])c([H])c([H])c3c3c4c(c5c6c([H])c([H])c([H])c([H])c6n2c5c31)C(=O)N([H])C4([H])[H]


 36 43  0  0  0  0  0  0  0  0999 V2000
   62.9247  -10.0727   -5.7388 C   0  0  0  0  0  0  0  0  0  0  0  0
   62.0702   -9.0994   -5.0016 C   0  0  0  0  0  0  0  0  0  0  0  0
   61.0471   -8.8792   -5.9648 O   0  0  0  0  0  0  0  0  0  0  0  0
   60.5518   -7.6275   -5.8299 C   0  0  0  0  0  0  0  0  0  0  0  0
   61.6513   -6.7629   -5.3813 C   0  0  0  0  0  0  0  0  0  0  0  0
   62.6794   -7.7369   -4.8499 C   0  0  0  0  0  0  0  0  0  0  0  0
   62.9109   -7.3877   -3.5279 O   0  0  0  0  0  0  0  0  0  0  0  0
   59.3796   -7.6257   -4.9451 N   0  0  0  0  0  0  0  0  0  0  0  0
   58.2609   -6.9281   -5.0409 C   0  0  0  0  0  0  0  0  0  0  0  0
   57.9023   -6.0140   -5.9975 C   0  0  0  0  0  0  0  0  0  0  0  0
   56.6608   -5.3994   -5.8901 C   0  0  0  0  0  0  0  0  0  0  0  0
   55.8160   -5.7006   -4.8528 C   0  0  0  0  0  0  0  0  0  0  0  0
   56.1795   -6.6338   -3.8744 C   0  0  0  0  0  0  0  0  0  0  0  0
   57.4010   -7.2313   -3.9896 C   0  0  0  0  0  0  0  0  0  0  0  0
   58.0621   -8.1684   -3.2284 C   0  0  0  0  0  0  0  0  0  0  0  0
   57.7527   -8.8456   -2.0629 C   0  0  0  0  0  0  0  0  0  0  0  0
   56.6089   -8.8721   -1.1691 C   0  0  0  0  0  0  0  0  0  0  0  0
   55.5414   -8.2584   -1.2100 O   0  0  0  0  0  0  0  0  0  0  0  0
   56.9061   -9.7999   -0.1208 N   0  0  0  0  0  0  0  0  0  0  0  0
   58.2175  -10.3728   -0.3043 C   0  0  0  0  0  0  0  0  0  0  0  0
   58.6878   -9.7279   -1.5546 C   0  0  0  0  0  0  0  0  0  0  0  0
   59.9124   -9.9499   -2.1750 C   0  0  0  0  0  0  0  0  0  0  0  0
   61.0028  -10.7165   -1.9087 C   0  0  0  0  0  0  0  0  0  0  0  0
   61.2503  -11.5778   -0.8647 C   0  0  0  0  0  0  0  0  0  0  0  0
   62.4793  -12.2418   -0.8102 C   0  0  0  0  0  0  0  0  0  0  0  0
   63.4056  -12.0079   -1.8107 C   0  0  0  0  0  0  0  0  0  0  0  0
   63.1327  -11.1363   -2.8507 C   0  0  0  0  0  0  0  0  0  0  0  0
   61.9308  -10.4742   -2.9247 C   0  0  0  0  0  0  0  0  0  0  0  0
   61.4254   -9.5752   -3.8112 N   0  0  0  0  0  0  0  0  0  0  0  0
   60.1790   -9.2699   -3.3154 C   0  0  0  0  0  0  0  0  0  0  0  0
   59.2728   -8.3816   -3.8516 C   0  0  0  0  0  0  0  0  0  0  0  0
   63.6530   -6.7368   -3.5060 H   0  0  0  0  0  0  0  0  0  0  0  0
   56.2822  -10.0577    0.6910 H   0  0  0  0  0  0  0  0  0  0  0  0
   63.9418   -7.5485   -5.6209 C   0  0  0  0  0  0  0  0  0  0  0  0
   64.9992   -7.4529   -4.7156 O   0  0  0  0  0  0  0  0  0  0  0  0
   65.3792   -6.5391   -4.6677 H   0  0  0  0  0  0  0  0  0  0  0  0
  2  1  1  0  0  0
  2  3  1  0  0  0
  3  4  1  0  0  0
  4  5  1  0  0  0
  5  6  1  0  0  0
  6  7  1  0  0  0
  6 34  1  0  0  0
 34 35  1  0  0  0
  4  8  1  0  0  0
  8  9  1  0  0  0
  9 10  2  0  0  0
 10 11  1  0  0  0
 11 12  2  0  0  0
 12 13  1  0  0  0
 13 14  2  0  0  0
 14 15  1  0  0  0
 15 16  2  0  0  0
 16 17  1  0  0  0
 17 18  2  0  0  0
 17 19  1  0  0  0
 19 20  1  0  0  0
 20 21  1  0  0  0
 21 22  2  0  0  0
 22 23  1  0  0  0
 23 24  2  0  0  0
 24 25  1  0  0  0
 25 26  2  0  0  0
 26 27  1  0  0  0
 27 28  2  0  0  0
 28 29  1  0  0  0
 29 30  1  0  0  0
 30 31  2  0  0  0
  6  2  1  0  0  0
 31  8  1  0  0  0
 29  2  1  0  0  0
 14  9  1  0  0  0
 31 15  1  0  0  0
 21 16  1  0  0  0
 30 22  1  0  0  0
 28 23  1  0  0  0
  7 32  1  0  0  0
 35 36  1  0  0  0
 19 33  1  0  0  0
M  END
> <minimizedAffinity>
2.82897

> <CNNscore>
0.2705294192

> <CNNaffinity>
4.9992237091

> <CNN_VS>
1.3524371386

> <CNNaffinity_variance>
0.4699259698

$$$$
[H]c1c([H])c(C([H])([H])n2c(=O)n([H])c3c([H])c([H])c([H])c([H])c32)c([H])c([H])c1OC([H])([H])C([H])([H])C([H])([H])N1C([H])([H])C([H])([H])N([H])C([H])([H])C1([H])[H]


 29 32  0  0  0  0  0  0  0  0999 V2000
   53.9914   -5.3372   -7.4188 C   0  0  0  0  0  0  0  0  0  0  0  0
   54.0970   -6.5511   -6.7630 C   0  0  0  0  0  0  0  0  0  0  0  0
   55.1503   -6.8081   -5.9037 C   0  0  0  0  0  0  0  0  0  0  0  0
   56.1352   -5.8732   -5.6636 C   0  0  0  0  0  0  0  0  0  0  0  0
   56.0293   -4.6642   -6.3174 C   0  0  0  0  0  0  0  0  0  0  0  0
   54.9804   -4.4049   -7.1746 C   0  0  0  0  0  0  0  0  0  0  0  0
   52.8551   -5.0743   -8.3388 C   0  0  0  0  0  0  0  0  0  0  0  0
   52.3347   -2.3265   -9.3466 O   0  0  0  0  0  0  0  0  0  0  0  0
   51.7680   -2.8264   -8.3366 C   0  0  0  0  0  0  0  0  0  0  0  0
   50.8577   -2.1883   -7.5846 N   0  0  0  0  0  0  0  0  0  0  0  0
   50.4455   -2.9937   -6.5835 C   0  0  0  0  0  0  0  0  0  0  0  0
   49.5257   -2.8028   -5.5501 C   0  0  0  0  0  0  0  0  0  0  0  0
   49.3040   -3.8266   -4.6556 C   0  0  0  0  0  0  0  0  0  0  0  0
   49.9901   -5.0152   -4.7954 C   0  0  0  0  0  0  0  0  0  0  0  0
   50.8906   -5.1717   -5.8255 C   0  0  0  0  0  0  0  0  0  0  0  0
   51.1397   -4.1721   -6.7395 C   0  0  0  0  0  0  0  0  0  0  0  0
   51.9422   -4.0583   -7.8109 N   0  0  0  0  0  0  0  0  0  0  0  0
   50.4953   -1.2205   -7.7160 H   0  0  0  0  0  0  0  0  0  0  0  0
   57.2055   -6.1167   -4.7990 O   0  0  0  0  0  0  0  0  0  0  0  0
   57.0471   -6.5552   -3.4844 C   0  0  0  0  0  0  0  0  0  0  0  0
   56.4155   -5.4323   -2.6854 C   0  0  0  0  0  0  0  0  0  0  0  0
   55.3956   -5.9938   -1.7188 C   0  0  0  0  0  0  0  0  0  0  0  0
   54.1689   -5.2345   -1.7473 N   0  0  0  0  0  0  0  0  0  0  0  0
   53.4101   -5.6273   -2.9166 C   0  0  0  0  0  0  0  0  0  0  0  0
   53.0570   -7.0688   -2.8694 C   0  0  0  0  0  0  0  0  0  0  0  0
   52.5848   -7.5739   -1.6528 N   0  0  0  0  0  0  0  0  0  0  0  0
   52.8776   -6.8783   -0.4629 C   0  0  0  0  0  0  0  0  0  0  0  0
   53.3410   -5.4722   -0.6045 C   0  0  0  0  0  0  0  0  0  0  0  0
   51.6448   -7.9948   -1.6526 H   0  0  0  0  0  0  0  0  0  0  0  0
  8  9  2  0  0  0
  9 10  1  0  0  0
 10 11  1  0  0  0
 11 12  2  0  0  0
 12 13  1  0  0  0
 13 14  2  0  0  0
 14 15  1  0  0  0
 15 16  2  0  0  0
 16 17  1  0  0  0
 17  7  1  0  0  0
  7  1  1  0  0  0
  1  2  2  0  0  0
  2  3  1  0  0  0
  3  4  2  0  0  0
  4 19  1  0  0  0
 19 20  1  0  0  0
 20 21  1  0  0  0
 21 22  1  0  0  0
 22 23  1  0  0  0
 23 24  1  0  0  0
 24 25  1  0  0  0
 25 26  1  0  0  0
 26 27  1  0  0  0
 27 28  1  0  0  0
  4  5  1  0  0  0
  5  6  2  0  0  0
 17  9  1  0  0  0
  6  1  1  0  0  0
 16 11  1  0  0  0
 28 23  1  0  0  0
 10 18  1  0  0  0
 26 29  1  0  0  0
M  END
> <minimizedAffinity>
-8.27962

> <CNNscore>
0.8384075165

> <CNNaffinity>
7.0750503540

> <CNN_VS>
5.9317755699

> <CNNaffinity_variance>
0.0607959516

$$$$
[H]c1c([H])c(C([H])([H])n2c(=O)n([H])c3c([H])c([H])c([H])c([H])c32)c([H])c([H])c1OC([H])([H])C([H])([H])C([H])([H])N1C([H])([H])C([H])([H])N([H])C([H])([H])C1([H])[H]


 29 32  0  0  0  0  0  0  0  0999 V2000
   54.2221   -5.3999   -7.1956 C   0  0  0  0  0  0  0  0  0  0  0  0
   54.1521   -6.6191   -6.5450 C   0  0  0  0  0  0  0  0  0  0  0  0
   54.9509   -6.8889   -5.4481 C   0  0  0  0  0  0  0  0  0  0  0  0
   55.8463   -5.9620   -4.9573 C   0  0  0  0  0  0  0  0  0  0  0  0
   55.9154   -4.7477   -5.6062 C   0  0  0  0  0  0  0  0  0  0  0  0
   55.1203   -4.4757   -6.6999 C   0  0  0  0  0  0  0  0  0  0  0  0
   53.3585   -5.1233   -8.3722 C   0  0  0  0  0  0  0  0  0  0  0  0
   53.1567   -2.5104   -9.7754 O   0  0  0  0  0  0  0  0  0  0  0  0
   52.4107   -2.8569   -8.8191 C   0  0  0  0  0  0  0  0  0  0  0  0
   51.4296   -2.0963   -8.3088 N   0  0  0  0  0  0  0  0  0  0  0  0
   50.8204   -2.7521   -7.2991 C   0  0  0  0  0  0  0  0  0  0  0  0
   49.7607   -2.3985   -6.4609 C   0  0  0  0  0  0  0  0  0  0  0  0
   49.3441   -3.2911   -5.4981 C   0  0  0  0  0  0  0  0  0  0  0  0
   49.9769   -4.5111   -5.3793 C   0  0  0  0  0  0  0  0  0  0  0  0
   51.0189   -4.8296   -6.2216 C   0  0  0  0  0  0  0  0  0  0  0  0
   51.4643   -3.9645   -7.1961 C   0  0  0  0  0  0  0  0  0  0  0  0
   52.4312   -4.0168   -8.1273 N   0  0  0  0  0  0  0  0  0  0  0  0
   51.1466   -1.1412   -8.6135 H   0  0  0  0  0  0  0  0  0  0  0  0
   56.6602   -6.2184   -3.8509 O   0  0  0  0  0  0  0  0  0  0  0  0
   56.1632   -6.5749   -2.5974 C   0  0  0  0  0  0  0  0  0  0  0  0
   55.2106   -5.4874   -2.1409 C   0  0  0  0  0  0  0  0  0  0  0  0
   53.9833   -6.1057   -1.5075 C   0  0  0  0  0  0  0  0  0  0  0  0
   53.3953   -7.1063   -2.3650 N   0  0  0  0  0  0  0  0  0  0  0  0
   53.0008   -8.2374   -1.5512 C   0  0  0  0  0  0  0  0  0  0  0  0
   51.9863   -7.8451   -0.5404 C   0  0  0  0  0  0  0  0  0  0  0  0
   50.9384   -7.0227   -0.9694 N   0  0  0  0  0  0  0  0  0  0  0  0
   51.1058   -6.2541   -2.1385 C   0  0  0  0  0  0  0  0  0  0  0  0
   52.2232   -6.6404   -3.0409 C   0  0  0  0  0  0  0  0  0  0  0  0
   49.9812   -7.3869   -0.8602 H   0  0  0  0  0  0  0  0  0  0  0  0
  8  9  2  0  0  0
  9 10  1  0  0  0
 10 11  1  0  0  0
 11 12  2  0  0  0
 12 13  1  0  0  0
 13 14  2  0  0  0
 14 15  1  0  0  0
 15 16  2  0  0  0
 16 17  1  0  0  0
 17  7  1  0  0  0
  7  1  1  0  0  0
  1  2  2  0  0  0
  2  3  1  0  0  0
  3  4  2  0  0  0
  4 19  1  0  0  0
 19 20  1  0  0  0
 20 21  1  0  0  0
 21 22  1  0  0  0
 22 23  1  0  0  0
 23 24  1  0  0  0
 24 25  1  0  0  0
 25 26  1  0  0  0
 26 27  1  0  0  0
 27 28  1  0  0  0
  4  5  1  0  0  0
  5  6  2  0  0  0
 17  9  1  0  0  0
  6  1  1  0  0  0
 16 11  1  0  0  0
 28 23  1  0  0  0
 10 18  1  0  0  0
 26 29  1  0  0  0
M  END
> <minimizedAffinity>
-8.64282

> <CNNscore>
0.8243681788

> <CNNaffinity>
7.1089959145

> <CNN_VS>
5.8604302406

> <CNNaffinity_variance>
0.0512087047

$$$$
[H]c1c([H])c(C([H])([H])n2c(=O)n([H])c3c([H])c([H])c([H])c([H])c32)c([H])c([H])c1OC([H])([H])C([H])([H])C([H])([H])N1C([H])([H])C([H])([H])N([H])C([H])([H])C1([H])[H]


 29 32  0  0  0  0  0  0  0  0999 V2000
   51.2326   -4.8618   -6.9852 C   0  0  0  0  0  0  0  0  0  0  0  0
   51.3435   -6.0789   -6.3363 C   0  0  0  0  0  0  0  0  0  0  0  0
   50.8355   -6.2563   -5.0617 C   0  0  0  0  0  0  0  0  0  0  0  0
   50.2006   -5.2359   -4.3854 C   0  0  0  0  0  0  0  0  0  0  0  0
   50.0906   -4.0237   -5.0327 C   0  0  0  0  0  0  0  0  0  0  0  0
   50.5959   -3.8437   -6.3034 C   0  0  0  0  0  0  0  0  0  0  0  0
   51.7824   -4.6850   -8.3539 C   0  0  0  0  0  0  0  0  0  0  0  0
   52.6097   -2.0191   -9.3761 O   0  0  0  0  0  0  0  0  0  0  0  0
   53.3962   -2.8400   -8.8297 C   0  0  0  0  0  0  0  0  0  0  0  0
   54.7063   -2.6214   -8.6368 N   0  0  0  0  0  0  0  0  0  0  0  0
   55.2638   -3.6896   -8.0294 C   0  0  0  0  0  0  0  0  0  0  0  0
   56.5725   -3.9526   -7.6186 C   0  0  0  0  0  0  0  0  0  0  0  0
   56.8526   -5.1566   -7.0111 C   0  0  0  0  0  0  0  0  0  0  0  0
   55.8420   -6.0760   -6.8202 C   0  0  0  0  0  0  0  0  0  0  0  0
   54.5617   -5.7861   -7.2368 C   0  0  0  0  0  0  0  0  0  0  0  0
   54.2420   -4.5940   -7.8477 C   0  0  0  0  0  0  0  0  0  0  0  0
   53.1090   -4.0653   -8.3392 N   0  0  0  0  0  0  0  0  0  0  0  0
   55.2511   -1.7733   -8.8992 H   0  0  0  0  0  0  0  0  0  0  0  0
   49.6821   -5.3983   -3.0981 O   0  0  0  0  0  0  0  0  0  0  0  0
   50.4076   -5.9476   -2.0411 C   0  0  0  0  0  0  0  0  0  0  0  0
   51.7529   -5.2514   -1.9802 C   0  0  0  0  0  0  0  0  0  0  0  0
   52.7808   -6.1642   -1.3477 C   0  0  0  0  0  0  0  0  0  0  0  0
   52.6961   -7.5024   -1.8810 N   0  0  0  0  0  0  0  0  0  0  0  0
   53.8551   -7.7406   -2.7159 C   0  0  0  0  0  0  0  0  0  0  0  0
   55.1126   -7.6369   -1.9331 C   0  0  0  0  0  0  0  0  0  0  0  0
   55.1407   -8.2586   -0.6797 N   0  0  0  0  0  0  0  0  0  0  0  0
   53.9237   -8.5419   -0.0285 C   0  0  0  0  0  0  0  0  0  0  0  0
   52.6928   -8.5077   -0.8626 C   0  0  0  0  0  0  0  0  0  0  0  0
   55.8554   -8.9854   -0.5323 H   0  0  0  0  0  0  0  0  0  0  0  0
  8  9  2  0  0  0
  9 10  1  0  0  0
 10 11  1  0  0  0
 11 12  2  0  0  0
 12 13  1  0  0  0
 13 14  2  0  0  0
 14 15  1  0  0  0
 15 16  2  0  0  0
 16 17  1  0  0  0
 17  7  1  0  0  0
  7  1  1  0  0  0
  1  2  2  0  0  0
  2  3  1  0  0  0
  3  4  2  0  0  0
  4 19  1  0  0  0
 19 20  1  0  0  0
 20 21  1  0  0  0
 21 22  1  0  0  0
 22 23  1  0  0  0
 23 24  1  0  0  0
 24 25  1  0  0  0
 25 26  1  0  0  0
 26 27  1  0  0  0
 27 28  1  0  0  0
  4  5  1  0  0  0
  5  6  2  0  0  0
 17  9  1  0  0  0
  6  1  1  0  0  0
 16 11  1  0  0  0
 28 23  1  0  0  0
 10 18  1  0  0  0
 26 29  1  0  0  0
M  END
> <minimizedAffinity>
-7.35159

> <CNNscore>
0.7165501118

> <CNNaffinity>
6.8445000648

> <CNN_VS>
4.9044270515

> <CNNaffinity_variance>
0.1339591444

$$$$
[H]c1c([H])c(C([H])([H])n2c(=O)n([H])c3c([H])c([H])c([H])c([H])c32)c([H])c([H])c1OC([H])([H])C([H])([H])C([H])([H])N1C([H])([H])C([H])([H])N([H])C([H])([H])C1([H])[H]


 29 32  0  0  0  0  0  0  0  0999 V2000
   54.9428   -3.9865   -9.3455 C   0  0  0  0  0  0  0  0  0  0  0  0
   55.8090   -4.4877  -10.3011 C   0  0  0  0  0  0  0  0  0  0  0  0
   57.0915   -4.8822   -9.9642 C   0  0  0  0  0  0  0  0  0  0  0  0
   57.5611   -4.7945   -8.6706 C   0  0  0  0  0  0  0  0  0  0  0  0
   56.6975   -4.2951   -7.7192 C   0  0  0  0  0  0  0  0  0  0  0  0
   55.4183   -3.9010   -8.0519 C   0  0  0  0  0  0  0  0  0  0  0  0
   53.5682   -3.5667   -9.7208 C   0  0  0  0  0  0  0  0  0  0  0  0
   51.7584   -1.3837   -8.8288 O   0  0  0  0  0  0  0  0  0  0  0  0
   51.8754   -2.4900   -8.2343 C   0  0  0  0  0  0  0  0  0  0  0  0
   51.2015   -2.8293   -7.1242 N   0  0  0  0  0  0  0  0  0  0  0  0
   51.5508   -4.0746   -6.7395 C   0  0  0  0  0  0  0  0  0  0  0  0
   51.1411   -4.8700   -5.6672 C   0  0  0  0  0  0  0  0  0  0  0  0
   51.6819   -6.1288   -5.5244 C   0  0  0  0  0  0  0  0  0  0  0  0
   52.6129   -6.5790   -6.4374 C   0  0  0  0  0  0  0  0  0  0  0  0
   52.9958   -5.7699   -7.4841 C   0  0  0  0  0  0  0  0  0  0  0  0
   52.4783   -4.5060   -7.6608 C   0  0  0  0  0  0  0  0  0  0  0  0
   52.6679   -3.5321   -8.5665 N   0  0  0  0  0  0  0  0  0  0  0  0
   50.5065   -2.2523   -6.6054 H   0  0  0  0  0  0  0  0  0  0  0  0
   58.8533   -5.1885   -8.3135 O   0  0  0  0  0  0  0  0  0  0  0  0
   59.7193   -5.8574   -9.1784 C   0  0  0  0  0  0  0  0  0  0  0  0
   60.8131   -6.4990   -8.3477 C   0  0  0  0  0  0  0  0  0  0  0  0
   61.4088   -7.6734   -9.0933 C   0  0  0  0  0  0  0  0  0  0  0  0
   62.5350   -8.2312   -8.3841 N   0  0  0  0  0  0  0  0  0  0  0  0
   62.0372   -9.1041   -7.3413 C   0  0  0  0  0  0  0  0  0  0  0  0
   61.2506  -10.2276   -7.9102 C   0  0  0  0  0  0  0  0  0  0  0  0
   61.7785  -10.8768   -9.0319 N   0  0  0  0  0  0  0  0  0  0  0  0
   62.7303  -10.2066   -9.8259 C   0  0  0  0  0  0  0  0  0  0  0  0
   63.3876   -9.0161   -9.2237 C   0  0  0  0  0  0  0  0  0  0  0  0
   61.9645  -11.8861   -8.9457 H   0  0  0  0  0  0  0  0  0  0  0  0
  8  9  2  0  0  0
  9 10  1  0  0  0
 10 11  1  0  0  0
 11 12  2  0  0  0
 12 13  1  0  0  0
 13 14  2  0  0  0
 14 15  1  0  0  0
 15 16  2  0  0  0
 16 17  1  0  0  0
 17  7  1  0  0  0
  7  1  1  0  0  0
  1  2  2  0  0  0
  2  3  1  0  0  0
  3  4  2  0  0  0
  4 19  1  0  0  0
 19 20  1  0  0  0
 20 21  1  0  0  0
 21 22  1  0  0  0
 22 23  1  0  0  0
 23 24  1  0  0  0
 24 25  1  0  0  0
 25 26  1  0  0  0
 26 27  1  0  0  0
 27 28  1  0  0  0
  4  5  1  0  0  0
  5  6  2  0  0  0
 17  9  1  0  0  0
  6  1  1  0  0  0
 16 11  1  0  0  0
 28 23  1  0  0  0
 10 18  1  0  0  0
 26 29  1  0  0  0
M  END
> <minimizedAffinity>
-7.69235

> <CNNscore>
0.5823982954

> <CNNaffinity>
6.0944385529

> <CNN_VS>
3.5493905544

> <CNNaffinity_variance>
0.1488039196

$$$$
[H]c1c([H])c(C([H])([H])n2c(=O)n([H])c3c([H])c([H])c([H])c([H])c32)c([H])c([H])c1OC([H])([H])C([H])([H])C([H])([H])N1C([H])([H])C([H])([H])N([H])C([H])([H])C1([H])[H]


 29 32  0  0  0  0  0  0  0  0999 V2000
   53.7707   -4.7858   -8.1150 C   0  0  0  0  0  0  0  0  0  0  0  0
   54.9530   -4.3930   -7.5128 C   0  0  0  0  0  0  0  0  0  0  0  0
   56.0431   -4.0021   -8.2696 C   0  0  0  0  0  0  0  0  0  0  0  0
   56.0012   -3.9863   -9.6479 C   0  0  0  0  0  0  0  0  0  0  0  0
   54.8229   -4.3778  -10.2469 C   0  0  0  0  0  0  0  0  0  0  0  0
   53.7343   -4.7680   -9.4953 C   0  0  0  0  0  0  0  0  0  0  0  0
   52.6076   -5.2031   -7.2905 C   0  0  0  0  0  0  0  0  0  0  0  0
   52.1602   -2.8099   -8.9961 O   0  0  0  0  0  0  0  0  0  0  0  0
   51.5014   -3.0642   -7.9510 C   0  0  0  0  0  0  0  0  0  0  0  0
   50.5140   -2.2925   -7.4705 N   0  0  0  0  0  0  0  0  0  0  0  0
   50.0131   -2.8394   -6.3432 C   0  0  0  0  0  0  0  0  0  0  0  0
   48.9931   -2.4314   -5.4808 C   0  0  0  0  0  0  0  0  0  0  0  0
   48.6947   -3.2095   -4.3840 C   0  0  0  0  0  0  0  0  0  0  0  0
   49.4041   -4.3708   -4.1580 C   0  0  0  0  0  0  0  0  0  0  0  0
   50.4043   -4.7453   -5.0276 C   0  0  0  0  0  0  0  0  0  0  0  0
   50.7321   -3.9946   -6.1347 C   0  0  0  0  0  0  0  0  0  0  0  0
   51.6358   -4.1210   -7.1206 N   0  0  0  0  0  0  0  0  0  0  0  0
   50.1560   -1.4007   -7.8726 H   0  0  0  0  0  0  0  0  0  0  0  0
   57.0929   -3.5944  -10.4269 O   0  0  0  0  0  0  0  0  0  0  0  0
   57.6465   -4.3901  -11.4298 C   0  0  0  0  0  0  0  0  0  0  0  0
   58.4662   -3.4981  -12.3411 C   0  0  0  0  0  0  0  0  0  0  0  0
   58.3056   -3.9393  -13.7797 C   0  0  0  0  0  0  0  0  0  0  0  0
   57.3426   -3.1217  -14.4771 N   0  0  0  0  0  0  0  0  0  0  0  0
   57.7716   -2.9752  -15.8525 C   0  0  0  0  0  0  0  0  0  0  0  0
   57.8393   -4.2907  -16.5379 C   0  0  0  0  0  0  0  0  0  0  0  0
   56.7740   -5.1751  -16.3348 N   0  0  0  0  0  0  0  0  0  0  0  0
   55.9534   -5.0097  -15.2014 C   0  0  0  0  0  0  0  0  0  0  0  0
   56.0342   -3.7008  -14.4999 C   0  0  0  0  0  0  0  0  0  0  0  0
   56.2526   -5.4810  -17.1687 H   0  0  0  0  0  0  0  0  0  0  0  0
  8  9  2  0  0  0
  9 10  1  0  0  0
 10 11  1  0  0  0
 11 12  2  0  0  0
 12 13  1  0  0  0
 13 14  2  0  0  0
 14 15  1  0  0  0
 15 16  2  0  0  0
 16 17  1  0  0  0
 17  7  1  0  0  0
  7  1  1  0  0  0
  1  2  2  0  0  0
  2  3  1  0  0  0
  3  4  2  0  0  0
  4 19  1  0  0  0
 19 20  1  0  0  0
 20 21  1  0  0  0
 21 22  1  0  0  0
 22 23  1  0  0  0
 23 24  1  0  0  0
 24 25  1  0  0  0
 25 26  1  0  0  0
 26 27  1  0  0  0
 27 28  1  0  0  0
  4  5  1  0  0  0
  5  6  2  0  0  0
 17  9  1  0  0  0
  6  1  1  0  0  0
 16 11  1  0  0  0
 28 23  1  0  0  0
 10 18  1  0  0  0
 26 29  1  0  0  0
M  END
> <minimizedAffinity>
-7.90538

> <CNNscore>
0.5728710890

> <CNNaffinity>
6.5004997253

> <CNN_VS>
3.7239482403

> <CNNaffinity_variance>
0.1494730711

$$$$
[H]c1c([H])c(C([H])([H])n2c(=O)n([H])c3c([H])c([H])c([H])c([H])c32)c([H])c([H])c1OC([H])([H])C([H])([H])C([H])([H])N1C([H])([H])C([H])([H])N([H])C([H])([H])C1([H])[H]


 29 32  0  0  0  0  0  0  0  0999 V2000
   56.3971   -3.9571   -8.7540 C   0  0  0  0  0  0  0  0  0  0  0  0
   56.5876   -4.1781  -10.1066 C   0  0  0  0  0  0  0  0  0  0  0  0
   57.5860   -5.0232  -10.5572 C   0  0  0  0  0  0  0  0  0  0  0  0
   58.4299   -5.6786   -9.6855 C   0  0  0  0  0  0  0  0  0  0  0  0
   58.2393   -5.4577   -8.3381 C   0  0  0  0  0  0  0  0  0  0  0  0
   57.2449   -4.6159   -7.8857 C   0  0  0  0  0  0  0  0  0  0  0  0
   55.3211   -3.0472   -8.2836 C   0  0  0  0  0  0  0  0  0  0  0  0
   52.8223   -3.0005   -9.8930 O   0  0  0  0  0  0  0  0  0  0  0  0
   52.9694   -3.6767   -8.8384 C   0  0  0  0  0  0  0  0  0  0  0  0
   52.0222   -4.4628   -8.3034 N   0  0  0  0  0  0  0  0  0  0  0  0
   52.4921   -5.0465   -7.1813 C   0  0  0  0  0  0  0  0  0  0  0  0
   51.9078   -5.9353   -6.2762 C   0  0  0  0  0  0  0  0  0  0  0  0
   52.6458   -6.3723   -5.1983 C   0  0  0  0  0  0  0  0  0  0  0  0
   53.9410   -5.9271   -5.0327 C   0  0  0  0  0  0  0  0  0  0  0  0
   54.4880   -5.0506   -5.9433 C   0  0  0  0  0  0  0  0  0  0  0  0
   53.7827   -4.5911   -7.0332 C   0  0  0  0  0  0  0  0  0  0  0  0
   54.0623   -3.7573   -8.0487 N   0  0  0  0  0  0  0  0  0  0  0  0
   51.0589   -4.6271   -8.6643 H   0  0  0  0  0  0  0  0  0  0  0  0
   59.4430   -6.5353  -10.1239 O   0  0  0  0  0  0  0  0  0  0  0  0
   60.7248   -6.5540   -9.5745 C   0  0  0  0  0  0  0  0  0  0  0  0
   61.1446   -8.0009   -9.4058 C   0  0  0  0  0  0  0  0  0  0  0  0
   62.6541   -8.1020   -9.3704 C   0  0  0  0  0  0  0  0  0  0  0  0
   63.0961   -9.4603   -9.5751 N   0  0  0  0  0  0  0  0  0  0  0  0
   62.9443   -9.7885  -10.9774 C   0  0  0  0  0  0  0  0  0  0  0  0
   63.7751   -8.9016  -11.8305 C   0  0  0  0  0  0  0  0  0  0  0  0
   65.0879   -8.6560  -11.4127 N   0  0  0  0  0  0  0  0  0  0  0  0
   65.4230   -8.8506  -10.0580 C   0  0  0  0  0  0  0  0  0  0  0  0
   64.4741   -9.6530   -9.2409 C   0  0  0  0  0  0  0  0  0  0  0  0
   65.8440   -8.9264  -12.0577 H   0  0  0  0  0  0  0  0  0  0  0  0
  8  9  2  0  0  0
  9 10  1  0  0  0
 10 11  1  0  0  0
 11 12  2  0  0  0
 12 13  1  0  0  0
 13 14  2  0  0  0
 14 15  1  0  0  0
 15 16  2  0  0  0
 16 17  1  0  0  0
 17  7  1  0  0  0
  7  1  1  0  0  0
  1  2  2  0  0  0
  2  3  1  0  0  0
  3  4  2  0  0  0
  4 19  1  0  0  0
 19 20  1  0  0  0
 20 21  1  0  0  0
 21 22  1  0  0  0
 22 23  1  0  0  0
 23 24  1  0  0  0
 24 25  1  0  0  0
 25 26  1  0  0  0
 26 27  1  0  0  0
 27 28  1  0  0  0
  4  5  1  0  0  0
  5  6  2  0  0  0
 17  9  1  0  0  0
  6  1  1  0  0  0
 16 11  1  0  0  0
 28 23  1  0  0  0
 10 18  1  0  0  0
 26 29  1  0  0  0
M  END
> <minimizedAffinity>
-6.52516

> <CNNscore>
0.5679794550

> <CNNaffinity>
5.8288178444

> <CNN_VS>
3.3106486797

> <CNNaffinity_variance>
0.2722190022

$$$$
[H]c1c([H])c(C([H])([H])n2c(=O)n([H])c3c([H])c([H])c([H])c([H])c32)c([H])c([H])c1OC([H])([H])C([H])([H])C([H])([H])N1C([H])([H])C([H])([H])N([H])C([H])([H])C1([H])[H]


 29 32  0  0  0  0  0  0  0  0999 V2000
   56.4095   -3.9653   -8.7595 C   0  0  0  0  0  0  0  0  0  0  0  0
   56.5688   -4.2174  -10.1108 C   0  0  0  0  0  0  0  0  0  0  0  0
   57.5672   -5.0599  -10.5661 C   0  0  0  0  0  0  0  0  0  0  0  0
   58.4422   -5.6819   -9.7005 C   0  0  0  0  0  0  0  0  0  0  0  0
   58.2827   -5.4301   -8.3545 C   0  0  0  0  0  0  0  0  0  0  0  0
   57.2883   -4.5908   -7.8975 C   0  0  0  0  0  0  0  0  0  0  0  0
   55.3331   -3.0586   -8.2842 C   0  0  0  0  0  0  0  0  0  0  0  0
   52.7966   -3.0293   -9.8341 O   0  0  0  0  0  0  0  0  0  0  0  0
   52.9730   -3.7036   -8.7828 C   0  0  0  0  0  0  0  0  0  0  0  0
   52.0437   -4.4953   -8.2251 N   0  0  0  0  0  0  0  0  0  0  0  0
   52.5437   -5.0752   -7.1140 C   0  0  0  0  0  0  0  0  0  0  0  0
   51.9867   -5.9669   -6.1948 C   0  0  0  0  0  0  0  0  0  0  0  0
   52.7527   -6.3983   -5.1343 C   0  0  0  0  0  0  0  0  0  0  0  0
   54.0485   -5.9447   -4.9996 C   0  0  0  0  0  0  0  0  0  0  0  0
   54.5683   -5.0654   -5.9235 C   0  0  0  0  0  0  0  0  0  0  0  0
   53.8345   -4.6114   -6.9967 C   0  0  0  0  0  0  0  0  0  0  0  0
   54.0847   -3.7766   -8.0191 N   0  0  0  0  0  0  0  0  0  0  0  0
   51.0733   -4.6661   -8.5630 H   0  0  0  0  0  0  0  0  0  0  0  0
   59.4558   -6.5354  -10.1437 O   0  0  0  0  0  0  0  0  0  0  0  0
   60.6655   -6.7063   -9.4708 C   0  0  0  0  0  0  0  0  0  0  0  0
   61.0452   -8.1719   -9.5479 C   0  0  0  0  0  0  0  0  0  0  0  0
   62.2197   -8.4518   -8.6356 C   0  0  0  0  0  0  0  0  0  0  0  0
   61.9533   -8.0173   -7.2856 N   0  0  0  0  0  0  0  0  0  0  0  0
   61.7315   -9.1862   -6.4599 C   0  0  0  0  0  0  0  0  0  0  0  0
   62.9310  -10.0610   -6.4326 C   0  0  0  0  0  0  0  0  0  0  0  0
   64.1741   -9.4398   -6.2679 N   0  0  0  0  0  0  0  0  0  0  0  0
   64.3032   -8.0723   -6.5825 C   0  0  0  0  0  0  0  0  0  0  0  0
   63.0438   -7.2915   -6.7095 C   0  0  0  0  0  0  0  0  0  0  0  0
   64.7339   -9.7197   -5.4500 H   0  0  0  0  0  0  0  0  0  0  0  0
  8  9  2  0  0  0
  9 10  1  0  0  0
 10 11  1  0  0  0
 11 12  2  0  0  0
 12 13  1  0  0  0
 13 14  2  0  0  0
 14 15  1  0  0  0
 15 16  2  0  0  0
 16 17  1  0  0  0
 17  7  1  0  0  0
  7  1  1  0  0  0
  1  2  2  0  0  0
  2  3  1  0  0  0
  3  4  2  0  0  0
  4 19  1  0  0  0
 19 20  1  0  0  0
 20 21  1  0  0  0
 21 22  1  0  0  0
 22 23  1  0  0  0
 23 24  1  0  0  0
 24 25  1  0  0  0
 25 26  1  0  0  0
 26 27  1  0  0  0
 27 28  1  0  0  0
  4  5  1  0  0  0
  5  6  2  0  0  0
 17  9  1  0  0  0
  6  1  1  0  0  0
 16 11  1  0  0  0
 28 23  1  0  0  0
 10 18  1  0  0  0
 26 29  1  0  0  0
M  END
> <minimizedAffinity>
-6.77507

> <CNNscore>
0.5453175306

> <CNNaffinity>
5.8914661407

> <CNN_VS>
3.2127196789

> <CNNaffinity_variance>
0.1711048484

$$$$
[H]c1c([H])c(C([H])([H])n2c(=O)n([H])c3c([H])c([H])c([H])c([H])c32)c([H])c([H])c1OC([H])([H])C([H])([H])C([H])([H])N1C([H])([H])C([H])([H])N([H])C([H])([H])C1([H])[H]


 29 32  0  0  0  0  0  0  0  0999 V2000
   54.0641   -5.4543   -6.7013 C   0  0  0  0  0  0  0  0  0  0  0  0
   53.7392   -6.2404   -5.6099 C   0  0  0  0  0  0  0  0  0  0  0  0
   54.5646   -6.2970   -4.5010 C   0  0  0  0  0  0  0  0  0  0  0  0
   55.7394   -5.5780   -4.4338 C   0  0  0  0  0  0  0  0  0  0  0  0
   56.0622   -4.7951   -5.5216 C   0  0  0  0  0  0  0  0  0  0  0  0
   55.2414   -4.7365   -6.6285 C   0  0  0  0  0  0  0  0  0  0  0  0
   53.1687   -5.4025   -7.8856 C   0  0  0  0  0  0  0  0  0  0  0  0
   53.3679   -3.0652   -9.7115 O   0  0  0  0  0  0  0  0  0  0  0  0
   52.5200   -3.1645   -8.7829 C   0  0  0  0  0  0  0  0  0  0  0  0
   51.5976   -2.2328   -8.4956 N   0  0  0  0  0  0  0  0  0  0  0  0
   50.8462   -2.6396   -7.4512 C   0  0  0  0  0  0  0  0  0  0  0  0
   49.7759   -2.0421   -6.7821 C   0  0  0  0  0  0  0  0  0  0  0  0
   49.1917   -2.7083   -5.7275 C   0  0  0  0  0  0  0  0  0  0  0  0
   49.6712   -3.9464   -5.3529 C   0  0  0  0  0  0  0  0  0  0  0  0
   50.7284   -4.5084   -6.0334 C   0  0  0  0  0  0  0  0  0  0  0  0
   51.3387   -3.8740   -7.0925 C   0  0  0  0  0  0  0  0  0  0  0  0
   52.3582   -4.1833   -7.9109 N   0  0  0  0  0  0  0  0  0  0  0  0
   51.4481   -1.3215   -8.9775 H   0  0  0  0  0  0  0  0  0  0  0  0
   56.5841   -5.6240   -3.3217 O   0  0  0  0  0  0  0  0  0  0  0  0
   57.1000   -6.8089   -2.7970 C   0  0  0  0  0  0  0  0  0  0  0  0
   58.1925   -7.3000   -3.7261 C   0  0  0  0  0  0  0  0  0  0  0  0
   59.5325   -7.2453   -3.0251 C   0  0  0  0  0  0  0  0  0  0  0  0
   60.3654   -8.3649   -3.3928 N   0  0  0  0  0  0  0  0  0  0  0  0
   61.6907   -8.1523   -2.8489 C   0  0  0  0  0  0  0  0  0  0  0  0
   61.6573   -8.0719   -1.3666 C   0  0  0  0  0  0  0  0  0  0  0  0
   60.8781   -9.0176   -0.6906 N   0  0  0  0  0  0  0  0  0  0  0  0
   59.8459   -9.6777   -1.3863 C   0  0  0  0  0  0  0  0  0  0  0  0
   59.8872   -9.6088   -2.8714 C   0  0  0  0  0  0  0  0  0  0  0  0
   61.3607   -9.6255   -0.0135 H   0  0  0  0  0  0  0  0  0  0  0  0
  8  9  2  0  0  0
  9 10  1  0  0  0
 10 11  1  0  0  0
 11 12  2  0  0  0
 12 13  1  0  0  0
 13 14  2  0  0  0
 14 15  1  0  0  0
 15 16  2  0  0  0
 16 17  1  0  0  0
 17  7  1  0  0  0
  7  1  1  0  0  0
  1  2  2  0  0  0
  2  3  1  0  0  0
  3  4  2  0  0  0
  4 19  1  0  0  0
 19 20  1  0  0  0
 20 21  1  0  0  0
 21 22  1  0  0  0
 22 23  1  0  0  0
 23 24  1  0  0  0
 24 25  1  0  0  0
 25 26  1  0  0  0
 26 27  1  0  0  0
 27 28  1  0  0  0
  4  5  1  0  0  0
  5  6  2  0  0  0
 17  9  1  0  0  0
  6  1  1  0  0  0
 16 11  1  0  0  0
 28 23  1  0  0  0
 10 18  1  0  0  0
 26 29  1  0  0  0
M  END
> <minimizedAffinity>
-7.83966

> <CNNscore>
0.5108553171

> <CNNaffinity>
6.1879758835

> <CNN_VS>
3.1611604691

> <CNNaffinity_variance>
0.3272528350

$$$$
[H]c1c([H])c(C([H])([H])n2c(=O)n([H])c3c([H])c([H])c([H])c([H])c32)c([H])c([H])c1OC([H])([H])C([H])([H])C([H])([H])N1C([H])([H])C([H])([H])N([H])C([H])([H])C1([H])[H]


 29 32  0  0  0  0  0  0  0  0999 V2000
   53.2844   -5.2264   -7.5736 C   0  0  0  0  0  0  0  0  0  0  0  0
   53.4769   -6.2146   -6.6243 C   0  0  0  0  0  0  0  0  0  0  0  0
   54.7065   -6.3874   -6.0141 C   0  0  0  0  0  0  0  0  0  0  0  0
   55.7877   -5.5888   -6.3221 C   0  0  0  0  0  0  0  0  0  0  0  0
   55.5950   -4.6046   -7.2680 C   0  0  0  0  0  0  0  0  0  0  0  0
   54.3704   -4.4298   -7.8780 C   0  0  0  0  0  0  0  0  0  0  0  0
   51.9589   -5.0517   -8.2210 C   0  0  0  0  0  0  0  0  0  0  0  0
   51.6470   -2.2496   -9.1631 O   0  0  0  0  0  0  0  0  0  0  0  0
   51.1052   -2.7074   -8.1200 C   0  0  0  0  0  0  0  0  0  0  0  0
   50.3184   -1.9945   -7.2990 N   0  0  0  0  0  0  0  0  0  0  0  0
   49.8988   -2.7714   -6.2786 C   0  0  0  0  0  0  0  0  0  0  0  0
   49.0774   -2.5072   -5.1804 C   0  0  0  0  0  0  0  0  0  0  0  0
   48.8175   -3.5186   -4.2821 C   0  0  0  0  0  0  0  0  0  0  0  0
   49.3696   -4.7670   -4.4817 C   0  0  0  0  0  0  0  0  0  0  0  0
   50.1755   -4.9951   -5.5750 C   0  0  0  0  0  0  0  0  0  0  0  0
   50.4587   -4.0102   -6.4949 C   0  0  0  0  0  0  0  0  0  0  0  0
   51.1916   -3.9590   -7.6197 N   0  0  0  0  0  0  0  0  0  0  0  0
   50.0465   -0.9935   -7.3951 H   0  0  0  0  0  0  0  0  0  0  0  0
   57.0360   -5.7500   -5.7154 O   0  0  0  0  0  0  0  0  0  0  0  0
   57.3685   -6.8474   -4.9213 C   0  0  0  0  0  0  0  0  0  0  0  0
   57.3056   -6.4155   -3.4695 C   0  0  0  0  0  0  0  0  0  0  0  0
   57.4663   -7.6170   -2.5638 C   0  0  0  0  0  0  0  0  0  0  0  0
   57.9032   -7.2278   -1.2447 N   0  0  0  0  0  0  0  0  0  0  0  0
   56.7350   -6.9518   -0.4345 C   0  0  0  0  0  0  0  0  0  0  0  0
   55.8784   -8.1569   -0.2976 C   0  0  0  0  0  0  0  0  0  0  0  0
   56.5189   -9.3718   -0.0291 N   0  0  0  0  0  0  0  0  0  0  0  0
   57.8866   -9.5080   -0.3394 C   0  0  0  0  0  0  0  0  0  0  0  0
   58.6479   -8.2533   -0.5803 C   0  0  0  0  0  0  0  0  0  0  0  0
   56.2512   -9.8622    0.8362 H   0  0  0  0  0  0  0  0  0  0  0  0
  8  9  2  0  0  0
  9 10  1  0  0  0
 10 11  1  0  0  0
 11 12  2  0  0  0
 12 13  1  0  0  0
 13 14  2  0  0  0
 14 15  1  0  0  0
 15 16  2  0  0  0
 16 17  1  0  0  0
 17  7  1  0  0  0
  7  1  1  0  0  0
  1  2  2  0  0  0
  2  3  1  0  0  0
  3  4  2  0  0  0
  4 19  1  0  0  0
 19 20  1  0  0  0
 20 21  1  0  0  0
 21 22  1  0  0  0
 22 23  1  0  0  0
 23 24  1  0  0  0
 24 25  1  0  0  0
 25 26  1  0  0  0
 26 27  1  0  0  0
 27 28  1  0  0  0
  4  5  1  0  0  0
  5  6  2  0  0  0
 17  9  1  0  0  0
  6  1  1  0  0  0
 16 11  1  0  0  0
 28 23  1  0  0  0
 10 18  1  0  0  0
 26 29  1  0  0  0
M  END
> <minimizedAffinity>
-6.91737

> <CNNscore>
0.4953549802

> <CNNaffinity>
6.4602289200

> <CNN_VS>
3.2001066208

> <CNNaffinity_variance>
0.3637036681

$$$$
[H]/C(=C1/C(=O)N(C([H])([H])[H])c2c([H])nc(N([H])c3c([H])c([H])c(N4C([H])([H])C([H])([H])N(C([H])([H])c5c([H])c([H])c([H])c([H])c5[H])C([H])([H])C4([H])[H])c([H])c3OC([H])([H])[H])nc21)c1c([H])nc([H])c([H])c1[H]


 41 46  0  0  0  0  0  0  0  0999 V2000
   57.3446   -4.7609  -10.7665 C   0  0  0  0  0  0  0  0  0  0  0  0
   58.5359   -5.4486  -10.6103 C   0  0  0  0  0  0  0  0  0  0  0  0
   58.9755   -5.7651   -9.3388 C   0  0  0  0  0  0  0  0  0  0  0  0
   58.2267   -5.3946   -8.2620 C   0  0  0  0  0  0  0  0  0  0  0  0
   57.0204   -4.6968   -8.4360 C   0  0  0  0  0  0  0  0  0  0  0  0
   56.5589   -4.3692   -9.6796 C   0  0  0  0  0  0  0  0  0  0  0  0
   60.2118   -6.4793   -9.2698 N   0  0  0  0  0  0  0  0  0  0  0  0
   60.5986   -7.4786  -10.2479 C   0  0  0  0  0  0  0  0  0  0  0  0
   60.9963   -8.7369   -9.4968 C   0  0  0  0  0  0  0  0  0  0  0  0
   61.8948   -8.5115   -8.4487 N   0  0  0  0  0  0  0  0  0  0  0  0
   61.7001   -7.4228   -7.5906 C   0  0  0  0  0  0  0  0  0  0  0  0
   61.1420   -6.1854   -8.2040 C   0  0  0  0  0  0  0  0  0  0  0  0
   62.9826   -9.3804   -8.2466 C   0  0  0  0  0  0  0  0  0  0  0  0
   62.6421  -10.7756   -7.9397 C   0  0  0  0  0  0  0  0  0  0  0  0
   63.0297  -11.7972   -8.7679 C   0  0  0  0  0  0  0  0  0  0  0  0
   62.7203  -13.1246   -8.4938 C   0  0  0  0  0  0  0  0  0  0  0  0
   62.0058  -13.3888   -7.3553 C   0  0  0  0  0  0  0  0  0  0  0  0
   61.6183  -12.3728   -6.5279 C   0  0  0  0  0  0  0  0  0  0  0  0
   61.9301  -11.0685   -6.8097 C   0  0  0  0  0  0  0  0  0  0  0  0
   57.7326   -3.8125  -12.9948 C   0  0  0  0  0  0  0  0  0  0  0  0
   56.9095   -4.4453  -12.0453 O   0  0  0  0  0  0  0  0  0  0  0  0
   55.4036   -3.6604   -9.9155 N   0  0  0  0  0  0  0  0  0  0  0  0
   55.3847   -3.0310  -10.8162 H   0  0  0  0  0  0  0  0  0  0  0  0
   54.1935   -3.5720   -9.2009 C   0  0  0  0  0  0  0  0  0  0  0  0
   53.1610   -2.8654   -9.6367 N   0  0  0  0  0  0  0  0  0  0  0  0
   51.9790   -2.7625   -8.9750 C   0  0  0  0  0  0  0  0  0  0  0  0
   51.8263   -3.4338   -7.7654 C   0  0  0  0  0  0  0  0  0  0  0  0
   50.7374   -3.5178   -6.8568 N   0  0  0  0  0  0  0  0  0  0  0  0
   49.4320   -2.8973   -6.9545 C   0  0  0  0  0  0  0  0  0  0  0  0
   51.1279   -4.3606   -5.7464 C   0  0  0  0  0  0  0  0  0  0  0  0
   50.4137   -4.6567   -4.7581 O   0  0  0  0  0  0  0  0  0  0  0  0
   52.4722   -4.7770   -6.0114 C   0  0  0  0  0  0  0  0  0  0  0  0
   53.2432   -5.5417   -5.2600 C   0  0  0  0  0  0  0  0  0  0  0  0
   52.8893   -4.1723   -7.3011 C   0  0  0  0  0  0  0  0  0  0  0  0
   54.0156   -4.2162   -8.0198 N   0  0  0  0  0  0  0  0  0  0  0  0
   52.8781   -6.1199   -3.9803 C   0  0  0  0  0  0  0  0  0  0  0  0
   53.4729   -5.5610   -2.8418 C   0  0  0  0  0  0  0  0  0  0  0  0
   53.1208   -6.0329   -1.5908 C   0  0  0  0  0  0  0  0  0  0  0  0
   52.1979   -7.0432   -1.4174 C   0  0  0  0  0  0  0  0  0  0  0  0
   51.6353   -7.5697   -2.5260 N   0  0  0  0  0  0  0  0  0  0  0  0
   51.9689   -7.1170   -3.7665 C   0  0  0  0  0  0  0  0  0  0  0  0
 20 21  1  0  0  0
 21  1  1  0  0  0
  1  2  2  0  0  0
  2  3  1  0  0  0
  3  4  2  0  0  0
  4  5  1  0  0  0
  5  6  2  0  0  0
  6 22  1  0  0  0
 22 24  1  0  0  0
 24 25  2  0  0  0
 25 26  1  0  0  0
 26 27  2  0  0  0
 27 28  1  0  0  0
 28 29  1  0  0  0
 28 30  1  0  0  0
 30 31  2  0  0  0
 30 32  1  0  0  0
 32 33  2  0  0  0
 33 36  1  0  0  0
 36 37  2  0  0  0
 37 38  1  0  0  0
 38 39  2  0  0  0
 39 40  1  0  0  0
 40 41  2  0  0  0
 32 34  1  0  0  0
 34 35  2  0  0  0
  3  7  1  0  0  0
  7  8  1  0  0  0
  8  9  1  0  0  0
  9 10  1  0  0  0
 10 13  1  0  0  0
 13 14  1  0  0  0
 14 15  2  0  0  0
 15 16  1  0  0  0
 16 17  2  0  0  0
 17 18  1  0  0  0
 18 19  2  0  0  0
 10 11  1  0  0  0
 11 12  1  0  0  0
  6  1  1  0  0  0
 35 24  1  0  0  0
 12  7  1  0  0  0
 34 27  1  0  0  0
 19 14  1  0  0  0
 41 36  1  0  0  0
 22 23  1  0  0  0
M  END
> <minimizedAffinity>
-8.73741

> <CNNscore>
0.7629603148

> <CNNaffinity>
7.6349806786

> <CNN_VS>
5.8251872063

> <CNNaffinity_variance>
0.0880675465

$$$$
[H]/C(=C1/C(=O)N(C([H])([H])[H])c2c([H])nc(N([H])c3c([H])c([H])c(N4C([H])([H])C([H])([H])N(C([H])([H])c5c([H])c([H])c([H])c([H])c5[H])C([H])([H])C4([H])[H])c([H])c3OC([H])([H])[H])nc21)c1c([H])nc([H])c([H])c1[H]


 41 46  0  0  0  0  0  0  0  0999 V2000
   57.8889   -4.5273  -10.8048 C   0  0  0  0  0  0  0  0  0  0  0  0
   59.0955   -5.2015  -10.7279 C   0  0  0  0  0  0  0  0  0  0  0  0
   59.4769   -5.7766   -9.5304 C   0  0  0  0  0  0  0  0  0  0  0  0
   58.6566   -5.6696   -8.4472 C   0  0  0  0  0  0  0  0  0  0  0  0
   57.4356   -4.9819   -8.5402 C   0  0  0  0  0  0  0  0  0  0  0  0
   57.0305   -4.4027   -9.7095 C   0  0  0  0  0  0  0  0  0  0  0  0
   60.7342   -6.4565   -9.5414 N   0  0  0  0  0  0  0  0  0  0  0  0
   61.6487   -6.4008  -10.6662 C   0  0  0  0  0  0  0  0  0  0  0  0
   62.0220   -7.8258  -11.0349 C   0  0  0  0  0  0  0  0  0  0  0  0
   62.4221   -8.6070   -9.9457 N   0  0  0  0  0  0  0  0  0  0  0  0
   61.7050   -8.5419   -8.7452 C   0  0  0  0  0  0  0  0  0  0  0  0
   61.1419   -7.2122   -8.3793 C   0  0  0  0  0  0  0  0  0  0  0  0
   63.5313   -9.4651  -10.0565 C   0  0  0  0  0  0  0  0  0  0  0  0
   63.3650  -10.6176  -10.9514 C   0  0  0  0  0  0  0  0  0  0  0  0
   62.4743  -11.6180  -10.6590 C   0  0  0  0  0  0  0  0  0  0  0  0
   62.2996  -12.7156  -11.4943 C   0  0  0  0  0  0  0  0  0  0  0  0
   63.0540  -12.7716  -12.6362 C   0  0  0  0  0  0  0  0  0  0  0  0
   63.9425  -11.7761  -12.9305 C   0  0  0  0  0  0  0  0  0  0  0  0
   64.1047  -10.6994  -12.0986 C   0  0  0  0  0  0  0  0  0  0  0  0
   56.9423   -4.6910  -13.0614 C   0  0  0  0  0  0  0  0  0  0  0  0
   57.5126   -3.9513  -12.0093 O   0  0  0  0  0  0  0  0  0  0  0  0
   55.8633   -3.6896   -9.8573 N   0  0  0  0  0  0  0  0  0  0  0  0
   55.8463   -2.9271  -10.6486 H   0  0  0  0  0  0  0  0  0  0  0  0
   54.6383   -3.7391   -9.1647 C   0  0  0  0  0  0  0  0  0  0  0  0
   53.5249   -3.2114   -9.6517 N   0  0  0  0  0  0  0  0  0  0  0  0
   52.3267   -3.2453   -9.0123 C   0  0  0  0  0  0  0  0  0  0  0  0
   52.2460   -3.8684   -7.7704 C   0  0  0  0  0  0  0  0  0  0  0  0
   51.1615   -4.0609   -6.8731 N   0  0  0  0  0  0  0  0  0  0  0  0
   49.7833   -3.6401   -7.0216 C   0  0  0  0  0  0  0  0  0  0  0  0
   51.6449   -4.7806   -5.7138 C   0  0  0  0  0  0  0  0  0  0  0  0
   50.9598   -5.1249   -4.7206 O   0  0  0  0  0  0  0  0  0  0  0  0
   53.0402   -5.0128   -5.9380 C   0  0  0  0  0  0  0  0  0  0  0  0
   53.8965   -5.6191   -5.1362 C   0  0  0  0  0  0  0  0  0  0  0  0
   53.3936   -4.4218   -7.2528 C   0  0  0  0  0  0  0  0  0  0  0  0
   54.5294   -4.3404   -7.9531 N   0  0  0  0  0  0  0  0  0  0  0  0
   53.5909   -6.1771   -3.8321 C   0  0  0  0  0  0  0  0  0  0  0  0
   53.6637   -5.3044   -2.7388 C   0  0  0  0  0  0  0  0  0  0  0  0
   53.3287   -5.7649   -1.4789 C   0  0  0  0  0  0  0  0  0  0  0  0
   52.9220   -7.0635   -1.2533 C   0  0  0  0  0  0  0  0  0  0  0  0
   52.8580   -7.8901   -2.3189 N   0  0  0  0  0  0  0  0  0  0  0  0
   53.1832   -7.4539   -3.5676 C   0  0  0  0  0  0  0  0  0  0  0  0
 20 21  1  0  0  0
 21  1  1  0  0  0
  1  2  2  0  0  0
  2  3  1  0  0  0
  3  4  2  0  0  0
  4  5  1  0  0  0
  5  6  2  0  0  0
  6 22  1  0  0  0
 22 24  1  0  0  0
 24 25  2  0  0  0
 25 26  1  0  0  0
 26 27  2  0  0  0
 27 28  1  0  0  0
 28 29  1  0  0  0
 28 30  1  0  0  0
 30 31  2  0  0  0
 30 32  1  0  0  0
 32 33  2  0  0  0
 33 36  1  0  0  0
 36 37  2  0  0  0
 37 38  1  0  0  0
 38 39  2  0  0  0
 39 40  1  0  0  0
 40 41  2  0  0  0
 32 34  1  0  0  0
 34 35  2  0  0  0
  3  7  1  0  0  0
  7  8  1  0  0  0
  8  9  1  0  0  0
  9 10  1  0  0  0
 10 13  1  0  0  0
 13 14  1  0  0  0
 14 15  2  0  0  0
 15 16  1  0  0  0
 16 17  2  0  0  0
 17 18  1  0  0  0
 18 19  2  0  0  0
 10 11  1  0  0  0
 11 12  1  0  0  0
  6  1  1  0  0  0
 35 24  1  0  0  0
 12  7  1  0  0  0
 34 27  1  0  0  0
 19 14  1  0  0  0
 41 36  1  0  0  0
 22 23  1  0  0  0
M  END
> <minimizedAffinity>
-8.13621

> <CNNscore>
0.6215190887

> <CNNaffinity>
7.3423051834

> <CNN_VS>
4.5633826256

> <CNNaffinity_variance>
0.1609246582

$$$$
[H]/C(=C1/C(=O)N(C([H])([H])[H])c2c([H])nc(N([H])c3c([H])c([H])c(N4C([H])([H])C([H])([H])N(C([H])([H])c5c([H])c([H])c([H])c([H])c5[H])C([H])([H])C4([H])[H])c([H])c3OC([H])([H])[H])nc21)c1c([H])nc([H])c([H])c1[H]


 41 46  0  0  0  0  0  0  0  0999 V2000
   52.8388   -5.4333   -5.8904 C   0  0  0  0  0  0  0  0  0  0  0  0
   52.8346   -6.0574   -4.6547 C   0  0  0  0  0  0  0  0  0  0  0  0
   54.0292   -6.2492   -3.9867 C   0  0  0  0  0  0  0  0  0  0  0  0
   55.1897   -5.8189   -4.5574 C   0  0  0  0  0  0  0  0  0  0  0  0
   55.1785   -5.1877   -5.8119 C   0  0  0  0  0  0  0  0  0  0  0  0
   54.0143   -4.9836   -6.4972 C   0  0  0  0  0  0  0  0  0  0  0  0
   53.9324   -6.8969   -2.7162 N   0  0  0  0  0  0  0  0  0  0  0  0
   53.8802   -8.3395   -2.5707 C   0  0  0  0  0  0  0  0  0  0  0  0
   52.6837   -8.6773   -1.6989 C   0  0  0  0  0  0  0  0  0  0  0  0
   52.6130   -7.9298   -0.5187 N   0  0  0  0  0  0  0  0  0  0  0  0
   52.8710   -6.5543   -0.5526 C   0  0  0  0  0  0  0  0  0  0  0  0
   53.9148   -6.0980   -1.5124 C   0  0  0  0  0  0  0  0  0  0  0  0
   52.2716   -8.5514    0.6963 C   0  0  0  0  0  0  0  0  0  0  0  0
   50.8981   -9.0622    0.7928 C   0  0  0  0  0  0  0  0  0  0  0  0
   50.6415  -10.4090    0.7827 C   0  0  0  0  0  0  0  0  0  0  0  0
   49.3492  -10.9129    0.8762 C   0  0  0  0  0  0  0  0  0  0  0  0
   48.3219  -10.0128    0.9802 C   0  0  0  0  0  0  0  0  0  0  0  0
   48.5744   -8.6699    0.9908 C   0  0  0  0  0  0  0  0  0  0  0  0
   49.8532   -8.1864    0.8981 C   0  0  0  0  0  0  0  0  0  0  0  0
   50.6714   -6.2603   -6.6863 C   0  0  0  0  0  0  0  0  0  0  0  0
   51.6365   -5.2450   -6.5562 O   0  0  0  0  0  0  0  0  0  0  0  0
   53.9394   -4.4014   -7.7415 N   0  0  0  0  0  0  0  0  0  0  0  0
   52.9998   -3.8894   -7.9923 H   0  0  0  0  0  0  0  0  0  0  0  0
   54.8615   -4.3331   -8.8035 C   0  0  0  0  0  0  0  0  0  0  0  0
   54.5718   -3.7553   -9.9600 N   0  0  0  0  0  0  0  0  0  0  0  0
   55.4386   -3.6683  -11.0025 C   0  0  0  0  0  0  0  0  0  0  0  0
   56.7117   -4.2134  -10.8641 C   0  0  0  0  0  0  0  0  0  0  0  0
   57.8169   -4.2828  -11.7540 N   0  0  0  0  0  0  0  0  0  0  0  0
   57.9169   -3.7777  -13.1081 C   0  0  0  0  0  0  0  0  0  0  0  0
   58.9030   -4.9694  -11.0872 C   0  0  0  0  0  0  0  0  0  0  0  0
   60.0344   -5.2083  -11.5742 O   0  0  0  0  0  0  0  0  0  0  0  0
   58.4224   -5.3086   -9.7815 C   0  0  0  0  0  0  0  0  0  0  0  0
   59.0645   -5.9602   -8.8292 C   0  0  0  0  0  0  0  0  0  0  0  0
   57.0270   -4.8156   -9.6687 C   0  0  0  0  0  0  0  0  0  0  0  0
   56.1097   -4.8549   -8.6971 N   0  0  0  0  0  0  0  0  0  0  0  0
   60.4146   -6.4840   -8.9196 C   0  0  0  0  0  0  0  0  0  0  0  0
   60.5659   -7.7405   -9.5200 C   0  0  0  0  0  0  0  0  0  0  0  0
   61.8342   -8.2658   -9.6852 C   0  0  0  0  0  0  0  0  0  0  0  0
   62.9682   -7.5951   -9.2772 C   0  0  0  0  0  0  0  0  0  0  0  0
   62.8029   -6.3856   -8.7005 N   0  0  0  0  0  0  0  0  0  0  0  0
   61.5615   -5.8516   -8.5304 C   0  0  0  0  0  0  0  0  0  0  0  0
 20 21  1  0  0  0
 21  1  1  0  0  0
  1  2  2  0  0  0
  2  3  1  0  0  0
  3  4  2  0  0  0
  4  5  1  0  0  0
  5  6  2  0  0  0
  6 22  1  0  0  0
 22 24  1  0  0  0
 24 25  2  0  0  0
 25 26  1  0  0  0
 26 27  2  0  0  0
 27 28  1  0  0  0
 28 29  1  0  0  0
 28 30  1  0  0  0
 30 31  2  0  0  0
 30 32  1  0  0  0
 32 33  2  0  0  0
 33 36  1  0  0  0
 36 37  2  0  0  0
 37 38  1  0  0  0
 38 39  2  0  0  0
 39 40  1  0  0  0
 40 41  2  0  0  0
 32 34  1  0  0  0
 34 35  2  0  0  0
  3  7  1  0  0  0
  7  8  1  0  0  0
  8  9  1  0  0  0
  9 10  1  0  0  0
 10 13  1  0  0  0
 13 14  1  0  0  0
 14 15  2  0  0  0
 15 16  1  0  0  0
 16 17  2  0  0  0
 17 18  1  0  0  0
 18 19  2  0  0  0
 10 11  1  0  0  0
 11 12  1  0  0  0
  6  1  1  0  0  0
 35 24  1  0  0  0
 12  7  1  0  0  0
 34 27  1  0  0  0
 19 14  1  0  0  0
 41 36  1  0  0  0
 22 23  1  0  0  0
M  END
> <minimizedAffinity>
-8.49007

> <CNNscore>
0.4452824593

> <CNNaffinity>
7.3108582497

> <CNN_VS>
3.2553968430

> <CNNaffinity_variance>
0.0369261876

$$$$
[H]/C(=C1/C(=O)N(C([H])([H])[H])c2c([H])nc(N([H])c3c([H])c([H])c(N4C([H])([H])C([H])([H])N(C([H])([H])c5c([H])c([H])c([H])c([H])c5[H])C([H])([H])C4([H])[H])c([H])c3OC([H])([H])[H])nc21)c1c([H])nc([H])c([H])c1[H]


 41 46  0  0  0  0  0  0  0  0999 V2000
   54.7592   -4.6909   -8.1477 C   0  0  0  0  0  0  0  0  0  0  0  0
   54.8231   -5.0668   -6.8169 C   0  0  0  0  0  0  0  0  0  0  0  0
   56.0283   -5.4881   -6.2875 C   0  0  0  0  0  0  0  0  0  0  0  0
   57.1320   -5.5246   -7.0862 C   0  0  0  0  0  0  0  0  0  0  0  0
   57.0517   -5.1407   -8.4347 C   0  0  0  0  0  0  0  0  0  0  0  0
   55.8753   -4.7197   -8.9876 C   0  0  0  0  0  0  0  0  0  0  0  0
   56.0051   -5.8528   -4.9056 N   0  0  0  0  0  0  0  0  0  0  0  0
   56.6232   -7.0647   -4.4014 C   0  0  0  0  0  0  0  0  0  0  0  0
   55.5898   -7.8044   -3.5703 C   0  0  0  0  0  0  0  0  0  0  0  0
   54.9379   -7.0004   -2.6294 N   0  0  0  0  0  0  0  0  0  0  0  0
   54.5059   -5.7193   -2.9926 C   0  0  0  0  0  0  0  0  0  0  0  0
   55.3692   -4.9743   -3.9508 C   0  0  0  0  0  0  0  0  0  0  0  0
   54.7038   -7.4785   -1.3272 C   0  0  0  0  0  0  0  0  0  0  0  0
   55.5504   -6.9079   -0.2715 C   0  0  0  0  0  0  0  0  0  0  0  0
   55.0843   -5.9132    0.5490 C   0  0  0  0  0  0  0  0  0  0  0  0
   55.8684   -5.3619    1.5561 C   0  0  0  0  0  0  0  0  0  0  0  0
   57.1401   -5.8472    1.7090 C   0  0  0  0  0  0  0  0  0  0  0  0
   57.6074   -6.8386    0.8930 C   0  0  0  0  0  0  0  0  0  0  0  0
   56.8240   -7.3735   -0.0958 C   0  0  0  0  0  0  0  0  0  0  0  0
   52.4678   -3.8625   -7.8670 C   0  0  0  0  0  0  0  0  0  0  0  0
   53.5463   -4.2703   -8.6732 O   0  0  0  0  0  0  0  0  0  0  0  0
   55.7238   -4.3613  -10.3072 N   0  0  0  0  0  0  0  0  0  0  0  0
   54.6945   -4.2274  -10.6683 H   0  0  0  0  0  0  0  0  0  0  0  0
   56.6622   -4.1283  -11.3309 C   0  0  0  0  0  0  0  0  0  0  0  0
   57.9690   -4.1421  -11.1135 N   0  0  0  0  0  0  0  0  0  0  0  0
   58.9007   -3.9259  -12.0783 C   0  0  0  0  0  0  0  0  0  0  0  0
   58.4741   -3.6736  -13.3788 C   0  0  0  0  0  0  0  0  0  0  0  0
   59.1883   -3.4121  -14.5787 N   0  0  0  0  0  0  0  0  0  0  0  0
   60.6214   -3.3370  -14.7764 C   0  0  0  0  0  0  0  0  0  0  0  0
   58.2341   -3.2179  -15.6499 C   0  0  0  0  0  0  0  0  0  0  0  0
   58.5107   -2.9696  -16.8483 O   0  0  0  0  0  0  0  0  0  0  0  0
   56.9361   -3.3683  -15.0639 C   0  0  0  0  0  0  0  0  0  0  0  0
   55.7633   -3.2565  -15.6605 C   0  0  0  0  0  0  0  0  0  0  0  0
   57.1203   -3.6572  -13.6197 C   0  0  0  0  0  0  0  0  0  0  0  0
   56.2757   -3.8805  -12.6079 N   0  0  0  0  0  0  0  0  0  0  0  0
   55.5487   -2.9424  -17.0607 C   0  0  0  0  0  0  0  0  0  0  0  0
   54.8323   -1.7722  -17.3430 C   0  0  0  0  0  0  0  0  0  0  0  0
   54.6451   -1.3914  -18.6589 C   0  0  0  0  0  0  0  0  0  0  0  0
   55.1405   -2.1261  -19.7160 C   0  0  0  0  0  0  0  0  0  0  0  0
   55.8282   -3.2508  -19.4246 N   0  0  0  0  0  0  0  0  0  0  0  0
   56.0235   -3.6411  -18.1345 C   0  0  0  0  0  0  0  0  0  0  0  0
 20 21  1  0  0  0
 21  1  1  0  0  0
  1  2  2  0  0  0
  2  3  1  0  0  0
  3  4  2  0  0  0
  4  5  1  0  0  0
  5  6  2  0  0  0
  6 22  1  0  0  0
 22 24  1  0  0  0
 24 25  2  0  0  0
 25 26  1  0  0  0
 26 27  2  0  0  0
 27 28  1  0  0  0
 28 29  1  0  0  0
 28 30  1  0  0  0
 30 31  2  0  0  0
 30 32  1  0  0  0
 32 33  2  0  0  0
 33 36  1  0  0  0
 36 37  2  0  0  0
 37 38  1  0  0  0
 38 39  2  0  0  0
 39 40  1  0  0  0
 40 41  2  0  0  0
 32 34  1  0  0  0
 34 35  2  0  0  0
  3  7  1  0  0  0
  7  8  1  0  0  0
  8  9  1  0  0  0
  9 10  1  0  0  0
 10 13  1  0  0  0
 13 14  1  0  0  0
 14 15  2  0  0  0
 15 16  1  0  0  0
 16 17  2  0  0  0
 17 18  1  0  0  0
 18 19  2  0  0  0
 10 11  1  0  0  0
 11 12  1  0  0  0
  6  1  1  0  0  0
 35 24  1  0  0  0
 12  7  1  0  0  0
 34 27  1  0  0  0
 19 14  1  0  0  0
 41 36  1  0  0  0
 22 23  1  0  0  0
M  END
> <minimizedAffinity>
-7.74105

> <CNNscore>
0.2965247035

> <CNNaffinity>
6.5215277672

> <CNN_VS>
1.9337941408

> <CNNaffinity_variance>
0.2550636530

$$$$
[H]/C(=C1/C(=O)N(C([H])([H])[H])c2c([H])nc(N([H])c3c([H])c([H])c(N4C([H])([H])C([H])([H])N(C([H])([H])c5c([H])c([H])c([H])c([H])c5[H])C([H])([H])C4([H])[H])c([H])c3OC([H])([H])[H])nc21)c1c([H])nc([H])c([H])c1[H]


 41 46  0  0  0  0  0  0  0  0999 V2000
   54.7198   -4.8126   -8.1504 C   0  0  0  0  0  0  0  0  0  0  0  0
   54.7723   -5.2087   -6.8249 C   0  0  0  0  0  0  0  0  0  0  0  0
   55.9904   -5.5431   -6.2640 C   0  0  0  0  0  0  0  0  0  0  0  0
   57.1178   -5.4756   -7.0269 C   0  0  0  0  0  0  0  0  0  0  0  0
   57.0488   -5.0725   -8.3704 C   0  0  0  0  0  0  0  0  0  0  0  0
   55.8602   -4.7356   -8.9539 C   0  0  0  0  0  0  0  0  0  0  0  0
   55.9536   -5.9360   -4.8902 N   0  0  0  0  0  0  0  0  0  0  0  0
   56.0985   -7.3147   -4.4622 C   0  0  0  0  0  0  0  0  0  0  0  0
   54.9396   -7.6399   -3.5364 C   0  0  0  0  0  0  0  0  0  0  0  0
   54.7374   -6.6928   -2.5270 N   0  0  0  0  0  0  0  0  0  0  0  0
   54.8029   -5.3284   -2.8331 C   0  0  0  0  0  0  0  0  0  0  0  0
   55.7962   -4.9271   -3.8680 C   0  0  0  0  0  0  0  0  0  0  0  0
   54.4561   -7.1057   -1.2119 C   0  0  0  0  0  0  0  0  0  0  0  0
   53.0785   -7.5468   -0.9578 C   0  0  0  0  0  0  0  0  0  0  0  0
   52.0087   -6.8507   -1.4588 C   0  0  0  0  0  0  0  0  0  0  0  0
   50.6974   -7.2532   -1.2324 C   0  0  0  0  0  0  0  0  0  0  0  0
   50.4995   -8.3825   -0.4828 C   0  0  0  0  0  0  0  0  0  0  0  0
   51.5636   -9.0784    0.0177 C   0  0  0  0  0  0  0  0  0  0  0  0
   52.8513   -8.6709   -0.2131 C   0  0  0  0  0  0  0  0  0  0  0  0
   52.4211   -3.9823   -7.9454 C   0  0  0  0  0  0  0  0  0  0  0  0
   53.4939   -4.4794   -8.7077 O   0  0  0  0  0  0  0  0  0  0  0  0
   55.7214   -4.3641  -10.2712 N   0  0  0  0  0  0  0  0  0  0  0  0
   54.6960   -4.2175  -10.6385 H   0  0  0  0  0  0  0  0  0  0  0  0
   56.6693   -4.1308  -11.2862 C   0  0  0  0  0  0  0  0  0  0  0  0
   57.9733   -4.1222  -11.0523 N   0  0  0  0  0  0  0  0  0  0  0  0
   58.9139   -3.9049  -12.0081 C   0  0  0  0  0  0  0  0  0  0  0  0
   58.5001   -3.6765  -13.3172 C   0  0  0  0  0  0  0  0  0  0  0  0
   59.2257   -3.4204  -14.5115 N   0  0  0  0  0  0  0  0  0  0  0  0
   60.6599   -3.3265  -14.6922 C   0  0  0  0  0  0  0  0  0  0  0  0
   58.2824   -3.2549  -15.5971 C   0  0  0  0  0  0  0  0  0  0  0  0
   58.5705   -3.0186  -16.7953 O   0  0  0  0  0  0  0  0  0  0  0  0
   56.9794   -3.4169  -15.0255 C   0  0  0  0  0  0  0  0  0  0  0  0
   55.8128   -3.3307  -15.6382 C   0  0  0  0  0  0  0  0  0  0  0  0
   57.1494   -3.6836  -13.5753 C   0  0  0  0  0  0  0  0  0  0  0  0
   56.2954   -3.9060  -12.5712 N   0  0  0  0  0  0  0  0  0  0  0  0
   55.6114   -3.0386  -17.0451 C   0  0  0  0  0  0  0  0  0  0  0  0
   54.8774   -1.8857  -17.3522 C   0  0  0  0  0  0  0  0  0  0  0  0
   54.7012   -1.5253  -18.6754 C   0  0  0  0  0  0  0  0  0  0  0  0
   55.2243   -2.2642  -19.7160 C   0  0  0  0  0  0  0  0  0  0  0  0
   55.9285   -3.3721  -19.4009 N   0  0  0  0  0  0  0  0  0  0  0  0
   56.1135   -3.7421  -18.1032 C   0  0  0  0  0  0  0  0  0  0  0  0
 20 21  1  0  0  0
 21  1  1  0  0  0
  1  2  2  0  0  0
  2  3  1  0  0  0
  3  4  2  0  0  0
  4  5  1  0  0  0
  5  6  2  0  0  0
  6 22  1  0  0  0
 22 24  1  0  0  0
 24 25  2  0  0  0
 25 26  1  0  0  0
 26 27  2  0  0  0
 27 28  1  0  0  0
 28 29  1  0  0  0
 28 30  1  0  0  0
 30 31  2  0  0  0
 30 32  1  0  0  0
 32 33  2  0  0  0
 33 36  1  0  0  0
 36 37  2  0  0  0
 37 38  1  0  0  0
 38 39  2  0  0  0
 39 40  1  0  0  0
 40 41  2  0  0  0
 32 34  1  0  0  0
 34 35  2  0  0  0
  3  7  1  0  0  0
  7  8  1  0  0  0
  8  9  1  0  0  0
  9 10  1  0  0  0
 10 13  1  0  0  0
 13 14  1  0  0  0
 14 15  2  0  0  0
 15 16  1  0  0  0
 16 17  2  0  0  0
 17 18  1  0  0  0
 18 19  2  0  0  0
 10 11  1  0  0  0
 11 12  1  0  0  0
  6  1  1  0  0  0
 35 24  1  0  0  0
 12  7  1  0  0  0
 34 27  1  0  0  0
 19 14  1  0  0  0
 41 36  1  0  0  0
 22 23  1  0  0  0
M  END
> <minimizedAffinity>
-8.30971

> <CNNscore>
0.2951046228

> <CNNaffinity>
6.6868133545

> <CNN_VS>
1.9733095169

> <CNNaffinity_variance>
0.1418264955

$$$$
[H]/C(=C1/C(=O)N(C([H])([H])[H])c2c([H])nc(N([H])c3c([H])c([H])c(N4C([H])([H])C([H])([H])N(C([H])([H])c5c([H])c([H])c([H])c([H])c5[H])C([H])([H])C4([H])[H])c([H])c3OC([H])([H])[H])nc21)c1c([H])nc([H])c([H])c1[H]


 41 46  0  0  0  0  0  0  0  0999 V2000
   55.1417   -4.2437   -8.4354 C   0  0  0  0  0  0  0  0  0  0  0  0
   55.1493   -5.0873   -7.3378 C   0  0  0  0  0  0  0  0  0  0  0  0
   56.3088   -5.7639   -7.0094 C   0  0  0  0  0  0  0  0  0  0  0  0
   57.4240   -5.5869   -7.7726 C   0  0  0  0  0  0  0  0  0  0  0  0
   57.4011   -4.7281   -8.8836 C   0  0  0  0  0  0  0  0  0  0  0  0
   56.2708   -4.0453   -9.2341 C   0  0  0  0  0  0  0  0  0  0  0  0
   56.2292   -6.6093   -5.8596 N   0  0  0  0  0  0  0  0  0  0  0  0
   55.0136   -7.3015   -5.4749 C   0  0  0  0  0  0  0  0  0  0  0  0
   54.7443   -6.9934   -4.0126 C   0  0  0  0  0  0  0  0  0  0  0  0
   55.8542   -7.1758   -3.1809 N   0  0  0  0  0  0  0  0  0  0  0  0
   57.1122   -6.7217   -3.5940 C   0  0  0  0  0  0  0  0  0  0  0  0
   57.4079   -6.8192   -5.0507 C   0  0  0  0  0  0  0  0  0  0  0  0
   55.7083   -7.8003   -1.9288 C   0  0  0  0  0  0  0  0  0  0  0  0
   55.0601   -6.9989   -0.8827 C   0  0  0  0  0  0  0  0  0  0  0  0
   53.8866   -7.4076   -0.3032 C   0  0  0  0  0  0  0  0  0  0  0  0
   53.2588   -6.6652    0.6906 C   0  0  0  0  0  0  0  0  0  0  0  0
   53.8539   -5.4950    1.0816 C   0  0  0  0  0  0  0  0  0  0  0  0
   55.0234   -5.0852    0.5061 C   0  0  0  0  0  0  0  0  0  0  0  0
   55.6321   -5.8266   -0.4725 C   0  0  0  0  0  0  0  0  0  0  0  0
   52.7377   -3.8497   -8.1513 C   0  0  0  0  0  0  0  0  0  0  0  0
   53.9743   -3.5685   -8.7603 O   0  0  0  0  0  0  0  0  0  0  0  0
   56.1743   -3.2154  -10.3272 N   0  0  0  0  0  0  0  0  0  0  0  0
   55.7288   -2.2251  -10.1586 H   0  0  0  0  0  0  0  0  0  0  0  0
   56.5418   -3.3911  -11.6751 C   0  0  0  0  0  0  0  0  0  0  0  0
   55.6490   -3.5693  -12.6376 N   0  0  0  0  0  0  0  0  0  0  0  0
   55.9688   -3.7372  -13.9473 C   0  0  0  0  0  0  0  0  0  0  0  0
   57.3104   -3.7234  -14.3176 C   0  0  0  0  0  0  0  0  0  0  0  0
   57.9493   -3.8717  -15.5778 N   0  0  0  0  0  0  0  0  0  0  0  0
   57.3430   -4.0852  -16.8761 C   0  0  0  0  0  0  0  0  0  0  0  0
   59.3804   -3.7748  -15.3830 C   0  0  0  0  0  0  0  0  0  0  0  0
   60.2543   -3.8579  -16.2796 O   0  0  0  0  0  0  0  0  0  0  0  0
   59.5819   -3.5663  -13.9806 C   0  0  0  0  0  0  0  0  0  0  0  0
   60.7297   -3.4389  -13.3403 C   0  0  0  0  0  0  0  0  0  0  0  0
   58.2485   -3.5384  -13.3293 C   0  0  0  0  0  0  0  0  0  0  0  0
   57.8414   -3.3814  -12.0657 N   0  0  0  0  0  0  0  0  0  0  0  0
   62.0490   -3.4951  -13.9416 C   0  0  0  0  0  0  0  0  0  0  0  0
   62.6485   -2.2711  -14.2652 C   0  0  0  0  0  0  0  0  0  0  0  0
   63.9282   -2.2591  -14.7885 C   0  0  0  0  0  0  0  0  0  0  0  0
   64.6454   -3.4168  -15.0075 C   0  0  0  0  0  0  0  0  0  0  0  0
   64.0515   -4.5868  -14.6898 N   0  0  0  0  0  0  0  0  0  0  0  0
   62.7920   -4.6183  -14.1723 C   0  0  0  0  0  0  0  0  0  0  0  0
 20 21  1  0  0  0
 21  1  1  0  0  0
  1  2  2  0  0  0
  2  3  1  0  0  0
  3  4  2  0  0  0
  4  5  1  0  0  0
  5  6  2  0  0  0
  6 22  1  0  0  0
 22 24  1  0  0  0
 24 25  2  0  0  0
 25 26  1  0  0  0
 26 27  2  0  0  0
 27 28  1  0  0  0
 28 29  1  0  0  0
 28 30  1  0  0  0
 30 31  2  0  0  0
 30 32  1  0  0  0
 32 33  2  0  0  0
 33 36  1  0  0  0
 36 37  2  0  0  0
 37 38  1  0  0  0
 38 39  2  0  0  0
 39 40  1  0  0  0
 40 41  2  0  0  0
 32 34  1  0  0  0
 34 35  2  0  0  0
  3  7  1  0  0  0
  7  8  1  0  0  0
  8  9  1  0  0  0
  9 10  1  0  0  0
 10 13  1  0  0  0
 13 14  1  0  0  0
 14 15  2  0  0  0
 15 16  1  0  0  0
 16 17  2  0  0  0
 17 18  1  0  0  0
 18 19  2  0  0  0
 10 11  1  0  0  0
 11 12  1  0  0  0
  6  1  1  0  0  0
 35 24  1  0  0  0
 12  7  1  0  0  0
 34 27  1  0  0  0
 19 14  1  0  0  0
 41 36  1  0  0  0
 22 23  1  0  0  0
M  END
> <minimizedAffinity>
-6.11720

> <CNNscore>
0.2924804389

> <CNNaffinity>
6.6018729210

> <CNN_VS>
1.9309186935

> <CNNaffinity_variance>
0.0325397924

$$$$
[H]/C(=C1/C(=O)N(C([H])([H])[H])c2c([H])nc(N([H])c3c([H])c([H])c(N4C([H])([H])C([H])([H])N(C([H])([H])c5c([H])c([H])c([H])c([H])c5[H])C([H])([H])C4([H])[H])c([H])c3OC([H])([H])[H])nc21)c1c([H])nc([H])c([H])c1[H]


 41 46  0  0  0  0  0  0  0  0999 V2000
   57.5190   -4.9769  -10.4010 C   0  0  0  0  0  0  0  0  0  0  0  0
   56.1706   -4.7105  -10.2355 C   0  0  0  0  0  0  0  0  0  0  0  0
   55.6390   -4.6648   -8.9606 C   0  0  0  0  0  0  0  0  0  0  0  0
   56.4532   -4.8822   -7.8896 C   0  0  0  0  0  0  0  0  0  0  0  0
   57.8192   -5.1519   -8.0730 C   0  0  0  0  0  0  0  0  0  0  0  0
   58.3748   -5.2038   -9.3202 C   0  0  0  0  0  0  0  0  0  0  0  0
   54.2406   -4.3792   -8.8816 N   0  0  0  0  0  0  0  0  0  0  0  0
   53.6151   -3.3000   -9.6223 C   0  0  0  0  0  0  0  0  0  0  0  0
   52.8093   -2.4667   -8.6414 C   0  0  0  0  0  0  0  0  0  0  0  0
   51.9714   -3.2199   -7.8122 N   0  0  0  0  0  0  0  0  0  0  0  0
   52.4485   -4.4024   -7.2345 C   0  0  0  0  0  0  0  0  0  0  0  0
   53.3929   -5.2091   -8.0568 C   0  0  0  0  0  0  0  0  0  0  0  0
   50.6593   -2.7873   -7.5471 C   0  0  0  0  0  0  0  0  0  0  0  0
   50.0737   -3.2495   -6.2822 C   0  0  0  0  0  0  0  0  0  0  0  0
   50.5165   -4.3960   -5.6744 C   0  0  0  0  0  0  0  0  0  0  0  0
   49.9778   -4.8488   -4.4754 C   0  0  0  0  0  0  0  0  0  0  0  0
   48.9759   -4.1066   -3.9083 C   0  0  0  0  0  0  0  0  0  0  0  0
   48.5325   -2.9635   -4.5114 C   0  0  0  0  0  0  0  0  0  0  0  0
   49.0724   -2.5281   -5.6932 C   0  0  0  0  0  0  0  0  0  0  0  0
   58.0484   -3.9107  -12.5454 C   0  0  0  0  0  0  0  0  0  0  0  0
   58.0461   -5.0225  -11.6833 O   0  0  0  0  0  0  0  0  0  0  0  0
   59.6965   -5.4940   -9.5683 N   0  0  0  0  0  0  0  0  0  0  0  0
   60.2578   -4.7668  -10.1715 H   0  0  0  0  0  0  0  0  0  0  0  0
   60.5051   -6.5843   -9.1936 C   0  0  0  0  0  0  0  0  0  0  0  0
   60.5767   -7.6955   -9.9115 N   0  0  0  0  0  0  0  0  0  0  0  0
   61.3492   -8.7632   -9.5813 C   0  0  0  0  0  0  0  0  0  0  0  0
   62.1182   -8.7026   -8.4228 C   0  0  0  0  0  0  0  0  0  0  0  0
   63.0051   -9.6356   -7.8219 N   0  0  0  0  0  0  0  0  0  0  0  0
   63.3633  -10.9625   -8.2798 C   0  0  0  0  0  0  0  0  0  0  0  0
   63.5407   -9.0486   -6.6118 C   0  0  0  0  0  0  0  0  0  0  0  0
   64.3576   -9.5899   -5.8282 O   0  0  0  0  0  0  0  0  0  0  0  0
   62.9543   -7.7466   -6.5032 C   0  0  0  0  0  0  0  0  0  0  0  0
   63.1375   -6.8563   -5.5453 C   0  0  0  0  0  0  0  0  0  0  0  0
   62.0548   -7.5549   -7.6681 C   0  0  0  0  0  0  0  0  0  0  0  0
   61.2659   -6.5534   -8.0703 N   0  0  0  0  0  0  0  0  0  0  0  0
   63.9823   -7.0257   -4.3779 C   0  0  0  0  0  0  0  0  0  0  0  0
   65.2945   -6.5446   -4.4725 C   0  0  0  0  0  0  0  0  0  0  0  0
   66.1289   -6.6270   -3.3731 C   0  0  0  0  0  0  0  0  0  0  0  0
   65.7164   -7.1705   -2.1744 C   0  0  0  0  0  0  0  0  0  0  0  0
   64.4487   -7.6292   -2.1020 N   0  0  0  0  0  0  0  0  0  0  0  0
   63.6120   -7.5555   -3.1743 C   0  0  0  0  0  0  0  0  0  0  0  0
 20 21  1  0  0  0
 21  1  1  0  0  0
  1  2  2  0  0  0
  2  3  1  0  0  0
  3  4  2  0  0  0
  4  5  1  0  0  0
  5  6  2  0  0  0
  6 22  1  0  0  0
 22 24  1  0  0  0
 24 25  2  0  0  0
 25 26  1  0  0  0
 26 27  2  0  0  0
 27 28  1  0  0  0
 28 29  1  0  0  0
 28 30  1  0  0  0
 30 31  2  0  0  0
 30 32  1  0  0  0
 32 33  2  0  0  0
 33 36  1  0  0  0
 36 37  2  0  0  0
 37 38  1  0  0  0
 38 39  2  0  0  0
 39 40  1  0  0  0
 40 41  2  0  0  0
 32 34  1  0  0  0
 34 35  2  0  0  0
  3  7  1  0  0  0
  7  8  1  0  0  0
  8  9  1  0  0  0
  9 10  1  0  0  0
 10 13  1  0  0  0
 13 14  1  0  0  0
 14 15  2  0  0  0
 15 16  1  0  0  0
 16 17  2  0  0  0
 17 18  1  0  0  0
 18 19  2  0  0  0
 10 11  1  0  0  0
 11 12  1  0  0  0
  6  1  1  0  0  0
 35 24  1  0  0  0
 12  7  1  0  0  0
 34 27  1  0  0  0
 19 14  1  0  0  0
 41 36  1  0  0  0
 22 23  1  0  0  0
M  END
> <minimizedAffinity>
-10.67809

> <CNNscore>
0.2877739370

> <CNNaffinity>
6.3614034653

> <CNN_VS>
1.8306461573

> <CNNaffinity_variance>
0.2622901797

$$$$
[H]/C(=C1/C(=O)N(C([H])([H])[H])c2c([H])nc(N([H])c3c([H])c([H])c(N4C([H])([H])C([H])([H])N(C([H])([H])c5c([H])c([H])c([H])c([H])c5[H])C([H])([H])C4([H])[H])c([H])c3OC([H])([H])[H])nc21)c1c([H])nc([H])c([H])c1[H]


 41 46  0  0  0  0  0  0  0  0999 V2000
   57.6308   -4.9833  -10.3135 C   0  0  0  0  0  0  0  0  0  0  0  0
   56.4332   -4.5082   -9.8069 C   0  0  0  0  0  0  0  0  0  0  0  0
   56.2118   -4.5420   -8.4431 C   0  0  0  0  0  0  0  0  0  0  0  0
   57.1779   -5.0422   -7.6221 C   0  0  0  0  0  0  0  0  0  0  0  0
   58.3877   -5.5211   -8.1505 C   0  0  0  0  0  0  0  0  0  0  0  0
   58.6367   -5.5013   -9.4938 C   0  0  0  0  0  0  0  0  0  0  0  0
   54.9517   -4.0278   -8.0063 N   0  0  0  0  0  0  0  0  0  0  0  0
   54.0680   -4.7603   -7.1190 C   0  0  0  0  0  0  0  0  0  0  0  0
   52.6897   -4.7926   -7.7555 C   0  0  0  0  0  0  0  0  0  0  0  0
   52.2374   -3.5429   -8.1918 N   0  0  0  0  0  0  0  0  0  0  0  0
   53.1130   -2.6865   -8.8697 C   0  0  0  0  0  0  0  0  0  0  0  0
   54.5368   -2.7111   -8.4327 C   0  0  0  0  0  0  0  0  0  0  0  0
   50.9057   -3.1505   -7.9641 C   0  0  0  0  0  0  0  0  0  0  0  0
   50.3679   -3.4468   -6.6301 C   0  0  0  0  0  0  0  0  0  0  0  0
   50.7835   -4.5488   -5.9281 C   0  0  0  0  0  0  0  0  0  0  0  0
   50.2892   -4.8452   -4.6630 C   0  0  0  0  0  0  0  0  0  0  0  0
   49.3602   -3.9927   -4.1277 C   0  0  0  0  0  0  0  0  0  0  0  0
   48.9441   -2.8936   -4.8247 C   0  0  0  0  0  0  0  0  0  0  0  0
   49.4396   -2.6128   -6.0710 C   0  0  0  0  0  0  0  0  0  0  0  0
   57.4553   -3.8614  -12.4873 C   0  0  0  0  0  0  0  0  0  0  0  0
   57.8463   -4.9476  -11.6834 O   0  0  0  0  0  0  0  0  0  0  0  0
   59.7861   -5.9837  -10.0761 N   0  0  0  0  0  0  0  0  0  0  0  0
   59.8602   -5.8984  -11.1692 H   0  0  0  0  0  0  0  0  0  0  0  0
   60.9304   -6.5956   -9.5294 C   0  0  0  0  0  0  0  0  0  0  0  0
   62.0745   -5.9472   -9.3681 N   0  0  0  0  0  0  0  0  0  0  0  0
   63.1949   -6.5057   -8.8405 C   0  0  0  0  0  0  0  0  0  0  0  0
   63.1559   -7.8379   -8.4396 C   0  0  0  0  0  0  0  0  0  0  0  0
   64.1412   -8.6868   -7.8677 N   0  0  0  0  0  0  0  0  0  0  0  0
   65.5153   -8.3742   -7.5321 C   0  0  0  0  0  0  0  0  0  0  0  0
   63.5541   -9.9919   -7.6491 C   0  0  0  0  0  0  0  0  0  0  0  0
   64.1350  -10.9889   -7.1562 O   0  0  0  0  0  0  0  0  0  0  0  0
   62.1987   -9.9039   -8.1029 C   0  0  0  0  0  0  0  0  0  0  0  0
   61.2878  -10.8599   -8.1145 C   0  0  0  0  0  0  0  0  0  0  0  0
   61.9746   -8.5234   -8.5999 C   0  0  0  0  0  0  0  0  0  0  0  0
   60.9217   -7.8923   -9.1291 N   0  0  0  0  0  0  0  0  0  0  0  0
   61.4843  -12.2264   -7.6680 C   0  0  0  0  0  0  0  0  0  0  0  0
   61.9044  -13.1519   -8.6320 C   0  0  0  0  0  0  0  0  0  0  0  0
   62.1625  -14.4565   -8.2538 C   0  0  0  0  0  0  0  0  0  0  0  0
   62.0207  -14.8876   -6.9513 C   0  0  0  0  0  0  0  0  0  0  0  0
   61.6149  -13.9818   -6.0361 N   0  0  0  0  0  0  0  0  0  0  0  0
   61.3570  -12.6921   -6.3899 C   0  0  0  0  0  0  0  0  0  0  0  0
 20 21  1  0  0  0
 21  1  1  0  0  0
  1  2  2  0  0  0
  2  3  1  0  0  0
  3  4  2  0  0  0
  4  5  1  0  0  0
  5  6  2  0  0  0
  6 22  1  0  0  0
 22 24  1  0  0  0
 24 25  2  0  0  0
 25 26  1  0  0  0
 26 27  2  0  0  0
 27 28  1  0  0  0
 28 29  1  0  0  0
 28 30  1  0  0  0
 30 31  2  0  0  0
 30 32  1  0  0  0
 32 33  2  0  0  0
 33 36  1  0  0  0
 36 37  2  0  0  0
 37 38  1  0  0  0
 38 39  2  0  0  0
 39 40  1  0  0  0
 40 41  2  0  0  0
 32 34  1  0  0  0
 34 35  2  0  0  0
  3  7  1  0  0  0
  7  8  1  0  0  0
  8  9  1  0  0  0
  9 10  1  0  0  0
 10 13  1  0  0  0
 13 14  1  0  0  0
 14 15  2  0  0  0
 15 16  1  0  0  0
 16 17  2  0  0  0
 17 18  1  0  0  0
 18 19  2  0  0  0
 10 11  1  0  0  0
 11 12  1  0  0  0
  6  1  1  0  0  0
 35 24  1  0  0  0
 12  7  1  0  0  0
 34 27  1  0  0  0
 19 14  1  0  0  0
 41 36  1  0  0  0
 22 23  1  0  0  0
M  END
> <minimizedAffinity>
-10.26497

> <CNNscore>
0.2476003319

> <CNNaffinity>
6.3389716148

> <CNN_VS>
1.5695314407

> <CNNaffinity_variance>
0.2131892443

$$$$
[H]/C(=C1/C(=O)N(C([H])([H])[H])c2c([H])nc(N([H])c3c([H])c([H])c(N4C([H])([H])C([H])([H])N(C([H])([H])c5c([H])c([H])c([H])c([H])c5[H])C([H])([H])C4([H])[H])c([H])c3OC([H])([H])[H])nc21)c1c([H])nc([H])c([H])c1[H]


 41 46  0  0  0  0  0  0  0  0999 V2000
   57.6836   -4.9464  -10.3431 C   0  0  0  0  0  0  0  0  0  0  0  0
   56.4777   -4.4880   -9.8410 C   0  0  0  0  0  0  0  0  0  0  0  0
   56.2483   -4.5330   -8.4788 C   0  0  0  0  0  0  0  0  0  0  0  0
   57.2148   -5.0274   -7.6550 C   0  0  0  0  0  0  0  0  0  0  0  0
   58.4332   -5.4895   -8.1789 C   0  0  0  0  0  0  0  0  0  0  0  0
   58.6902   -5.4584   -9.5204 C   0  0  0  0  0  0  0  0  0  0  0  0
   54.9798   -4.0356   -8.0467 N   0  0  0  0  0  0  0  0  0  0  0  0
   54.0990   -4.7835   -7.1694 C   0  0  0  0  0  0  0  0  0  0  0  0
   52.7251   -4.8272   -7.8147 C   0  0  0  0  0  0  0  0  0  0  0  0
   52.2614   -3.5799   -8.2460 N   0  0  0  0  0  0  0  0  0  0  0  0
   53.1315   -2.7095   -8.9131 C   0  0  0  0  0  0  0  0  0  0  0  0
   54.5529   -2.7209   -8.4674 C   0  0  0  0  0  0  0  0  0  0  0  0
   50.9241   -3.2039   -8.0241 C   0  0  0  0  0  0  0  0  0  0  0  0
   50.3878   -3.4960   -6.6886 C   0  0  0  0  0  0  0  0  0  0  0  0
   50.8056   -4.5948   -5.9829 C   0  0  0  0  0  0  0  0  0  0  0  0
   50.3128   -4.8873   -4.7163 C   0  0  0  0  0  0  0  0  0  0  0  0
   49.3829   -4.0342   -4.1834 C   0  0  0  0  0  0  0  0  0  0  0  0
   48.9646   -2.9382   -4.8841 C   0  0  0  0  0  0  0  0  0  0  0  0
   49.4587   -2.6613   -6.1319 C   0  0  0  0  0  0  0  0  0  0  0  0
   57.6463   -3.7549  -12.4865 C   0  0  0  0  0  0  0  0  0  0  0  0
   57.9071   -4.8997  -11.7114 O   0  0  0  0  0  0  0  0  0  0  0  0
   59.8485   -5.9242  -10.0985 N   0  0  0  0  0  0  0  0  0  0  0  0
   60.1328   -5.4811  -11.0632 H   0  0  0  0  0  0  0  0  0  0  0  0
   60.7769   -6.8998   -9.6873 C   0  0  0  0  0  0  0  0  0  0  0  0
   61.2576   -7.8165  -10.5143 N   0  0  0  0  0  0  0  0  0  0  0  0
   62.1567   -8.7683  -10.1517 C   0  0  0  0  0  0  0  0  0  0  0  0
   62.6111   -8.7959   -8.8365 C   0  0  0  0  0  0  0  0  0  0  0  0
   63.5274   -9.6499   -8.1660 N   0  0  0  0  0  0  0  0  0  0  0  0
   64.2698  -10.7729   -8.7012 C   0  0  0  0  0  0  0  0  0  0  0  0
   63.6300   -9.2234   -6.7865 C   0  0  0  0  0  0  0  0  0  0  0  0
   64.3502   -9.7486   -5.9034 O   0  0  0  0  0  0  0  0  0  0  0  0
   62.7555   -8.0978   -6.6479 C   0  0  0  0  0  0  0  0  0  0  0  0
   62.5122   -7.3942   -5.5572 C   0  0  0  0  0  0  0  0  0  0  0  0
   62.1217   -7.8497   -7.9669 C   0  0  0  0  0  0  0  0  0  0  0  0
   61.2382   -6.9507   -8.4121 N   0  0  0  0  0  0  0  0  0  0  0  0
   63.0885   -7.6313   -4.2469 C   0  0  0  0  0  0  0  0  0  0  0  0
   64.2794   -6.9565   -3.9489 C   0  0  0  0  0  0  0  0  0  0  0  0
   64.8452   -7.0989   -2.6955 C   0  0  0  0  0  0  0  0  0  0  0  0
   64.2781   -7.8880   -1.7166 C   0  0  0  0  0  0  0  0  0  0  0  0
   63.1308   -8.5308   -2.0219 N   0  0  0  0  0  0  0  0  0  0  0  0
   62.5582   -8.4017   -3.2509 C   0  0  0  0  0  0  0  0  0  0  0  0
 20 21  1  0  0  0
 21  1  1  0  0  0
  1  2  2  0  0  0
  2  3  1  0  0  0
  3  4  2  0  0  0
  4  5  1  0  0  0
  5  6  2  0  0  0
  6 22  1  0  0  0
 22 24  1  0  0  0
 24 25  2  0  0  0
 25 26  1  0  0  0
 26 27  2  0  0  0
 27 28  1  0  0  0
 28 29  1  0  0  0
 28 30  1  0  0  0
 30 31  2  0  0  0
 30 32  1  0  0  0
 32 33  2  0  0  0
 33 36  1  0  0  0
 36 37  2  0  0  0
 37 38  1  0  0  0
 38 39  2  0  0  0
 39 40  1  0  0  0
 40 41  2  0  0  0
 32 34  1  0  0  0
 34 35  2  0  0  0
  3  7  1  0  0  0
  7  8  1  0  0  0
  8  9  1  0  0  0
  9 10  1  0  0  0
 10 13  1  0  0  0
 13 14  1  0  0  0
 14 15  2  0  0  0
 15 16  1  0  0  0
 16 17  2  0  0  0
 17 18  1  0  0  0
 18 19  2  0  0  0
 10 11  1  0  0  0
 11 12  1  0  0  0
  6  1  1  0  0  0
 35 24  1  0  0  0
 12  7  1  0  0  0
 34 27  1  0  0  0
 19 14  1  0  0  0
 41 36  1  0  0  0
 22 23  1  0  0  0
M  END
> <minimizedAffinity>
-10.27637

> <CNNscore>
0.2428393811

> <CNNaffinity>
6.3819584846

> <CNN_VS>
1.5497908592

> <CNNaffinity_variance>
0.2240585983

$$$$
[H]c1nc(N([H])c2c([H])c([H])c(N3C([H])([H])C([H])([H])C([H])(N4C([H])([H])C([H])([H])N(C([H])([H])[H])C([H])([H])C4([H])[H])C([H])([H])C3([H])[H])c([H])c2OC([H])([H])[H])nc(N([H])c2c([H])c([H])c([H])c([H])c2S(=O)(=O)C([H])(C([H])([H])[H])C([H])([H])[H])c1Cl


 44 48  0  0  0  0  0  0  0  0999 V2000
   55.0020   -3.4106   -9.9583 N   0  0  0  0  0  0  0  0  0  0  0  0
   55.0092   -2.8479  -10.8827 H   0  0  0  0  0  0  0  0  0  0  0  0
   53.8207   -3.3136   -9.1762 C   0  0  0  0  0  0  0  0  0  0  0  0
   52.9464   -2.3043   -9.1894 N   0  0  0  0  0  0  0  0  0  0  0  0
   51.8480   -2.2774   -8.4242 C   0  0  0  0  0  0  0  0  0  0  0  0
   51.5798   -3.3244   -7.5739 C   0  0  0  0  0  0  0  0  0  0  0  0
   50.1400   -3.3066   -6.5603 Cl  0  0  0  0  0  0  0  0  0  0  0  0
   52.4877   -4.4030   -7.5410 C   0  0  0  0  0  0  0  0  0  0  0  0
   53.5533   -4.3364   -8.3417 N   0  0  0  0  0  0  0  0  0  0  0  0
   52.1897   -5.4593   -6.6665 N   0  0  0  0  0  0  0  0  0  0  0  0
   52.0630   -6.4101   -7.1469 H   0  0  0  0  0  0  0  0  0  0  0  0
   52.0275   -5.4979   -5.2734 C   0  0  0  0  0  0  0  0  0  0  0  0
   50.7983   -5.2200   -4.7140 C   0  0  0  0  0  0  0  0  0  0  0  0
   50.6204   -5.2525   -3.3248 C   0  0  0  0  0  0  0  0  0  0  0  0
   51.6817   -5.5635   -2.5288 C   0  0  0  0  0  0  0  0  0  0  0  0
   52.9076   -5.8407   -3.0902 C   0  0  0  0  0  0  0  0  0  0  0  0
   53.1096   -5.8162   -4.4454 C   0  0  0  0  0  0  0  0  0  0  0  0
   54.6429   -6.1652   -5.1292 S   0  0  0  0  0  0  0  0  0  0  0  0
   55.3487   -4.8818   -5.4884 O   0  0  0  0  0  0  0  0  0  0  0  0
   54.6000   -7.0267   -6.3602 O   0  0  0  0  0  0  0  0  0  0  0  0
   55.7240   -7.0072   -3.9888 C   0  0  0  0  0  0  0  0  0  0  0  0
   55.1904   -8.3614   -3.6511 C   0  0  0  0  0  0  0  0  0  0  0  0
   57.1605   -6.9669   -4.3913 C   0  0  0  0  0  0  0  0  0  0  0  0
   56.9437   -4.5494  -10.7979 C   0  0  0  0  0  0  0  0  0  0  0  0
   58.1093   -5.2735  -10.6270 C   0  0  0  0  0  0  0  0  0  0  0  0
   58.5674   -5.6287   -9.3778 C   0  0  0  0  0  0  0  0  0  0  0  0
   57.8020   -5.2233   -8.3116 C   0  0  0  0  0  0  0  0  0  0  0  0
   56.6189   -4.4907   -8.4490 C   0  0  0  0  0  0  0  0  0  0  0  0
   56.1673   -4.1397   -9.6964 C   0  0  0  0  0  0  0  0  0  0  0  0
   59.7788   -6.3716   -9.2167 N   0  0  0  0  0  0  0  0  0  0  0  0
   60.7010   -5.9530   -8.2173 C   0  0  0  0  0  0  0  0  0  0  0  0
   61.7672   -6.9456   -7.8477 C   0  0  0  0  0  0  0  0  0  0  0  0
   62.3767   -7.6572   -9.0084 C   0  0  0  0  0  0  0  0  0  0  0  0
   61.5584   -7.5289  -10.2777 C   0  0  0  0  0  0  0  0  0  0  0  0
   60.0869   -7.5181  -10.0374 C   0  0  0  0  0  0  0  0  0  0  0  0
   62.7384   -9.0064   -8.8281 N   0  0  0  0  0  0  0  0  0  0  0  0
   63.0808   -9.7853   -9.9441 C   0  0  0  0  0  0  0  0  0  0  0  0
   63.0538  -11.2681   -9.5630 C   0  0  0  0  0  0  0  0  0  0  0  0
   63.7207  -11.4077   -8.2830 N   0  0  0  0  0  0  0  0  0  0  0  0
   65.1349  -11.2163   -8.3344 C   0  0  0  0  0  0  0  0  0  0  0  0
   63.0447  -10.7402   -7.2178 C   0  0  0  0  0  0  0  0  0  0  0  0
   62.0566   -9.7362   -7.8078 C   0  0  0  0  0  0  0  0  0  0  0  0
   57.5167   -3.8640  -13.0339 C   0  0  0  0  0  0  0  0  0  0  0  0
   56.5404   -4.2255  -12.0841 O   0  0  0  0  0  0  0  0  0  0  0  0
 43 44  1  0  0  0
 44 24  1  0  0  0
 24 25  2  0  0  0
 25 26  1  0  0  0
 26 27  2  0  0  0
 27 28  1  0  0  0
 28 29  2  0  0  0
 29  1  1  0  0  0
  1  3  1  0  0  0
  3  4  2  0  0  0
  4  5  1  0  0  0
  5  6  2  0  0  0
  6  7  1  0  0  0
  6  8  1  0  0  0
  8 10  1  0  0  0
 10 12  1  0  0  0
 12 13  2  0  0  0
 13 14  1  0  0  0
 14 15  2  0  0  0
 15 16  1  0  0  0
 16 17  2  0  0  0
 17 18  1  0  0  0
 18 19  2  0  0  0
 18 20  2  0  0  0
 18 21  1  0  0  0
 21 22  1  0  0  0
 21 23  1  0  0  0
  8  9  2  0  0  0
 26 30  1  0  0  0
 30 31  1  0  0  0
 31 32  1  0  0  0
 32 33  1  0  0  0
 33 34  1  0  0  0
 34 35  1  0  0  0
 33 36  1  0  0  0
 36 37  1  0  0  0
 37 38  1  0  0  0
 38 39  1  0  0  0
 39 40  1  0  0  0
 39 41  1  0  0  0
 41 42  1  0  0  0
 29 24  1  0  0  0
  9  3  1  0  0  0
 35 30  1  0  0  0
 42 36  1  0  0  0
 17 12  1  0  0  0
  1  2  1  0  0  0
 10 11  1  0  0  0
M  END
> <minimizedAffinity>
-9.50101

> <CNNscore>
0.9266451001

> <CNNaffinity>
8.1607112885

> <CNN_VS>
7.5620832443

> <CNNaffinity_variance>
0.0884491652

$$$$
[H]c1nc(N([H])c2c([H])c([H])c(N3C([H])([H])C([H])([H])C([H])(N4C([H])([H])C([H])([H])N(C([H])([H])[H])C([H])([H])C4([H])[H])C([H])([H])C3([H])[H])c([H])c2OC([H])([H])[H])nc(N([H])c2c([H])c([H])c([H])c([H])c2S(=O)(=O)C([H])(C([H])([H])[H])C([H])([H])[H])c1Cl


 44 48  0  0  0  0  0  0  0  0999 V2000
   54.7512   -3.6890  -10.1841 N   0  0  0  0  0  0  0  0  0  0  0  0
   54.6142   -3.3520  -11.2033 H   0  0  0  0  0  0  0  0  0  0  0  0
   53.6496   -3.4977   -9.3087 C   0  0  0  0  0  0  0  0  0  0  0  0
   52.8686   -2.4162   -9.2479 N   0  0  0  0  0  0  0  0  0  0  0  0
   51.8418   -2.3019   -8.3963 C   0  0  0  0  0  0  0  0  0  0  0  0
   51.5523   -3.3302   -7.5304 C   0  0  0  0  0  0  0  0  0  0  0  0
   50.2057   -3.1977   -6.4035 Cl  0  0  0  0  0  0  0  0  0  0  0  0
   52.3621   -4.4839   -7.5744 C   0  0  0  0  0  0  0  0  0  0  0  0
   53.3617   -4.5019   -8.4584 N   0  0  0  0  0  0  0  0  0  0  0  0
   52.0443   -5.5191   -6.6819 N   0  0  0  0  0  0  0  0  0  0  0  0
   51.8719   -6.4695   -7.1488 H   0  0  0  0  0  0  0  0  0  0  0  0
   51.9111   -5.5371   -5.2853 C   0  0  0  0  0  0  0  0  0  0  0  0
   50.6896   -5.2675   -4.7052 C   0  0  0  0  0  0  0  0  0  0  0  0
   50.5406   -5.2798   -3.3124 C   0  0  0  0  0  0  0  0  0  0  0  0
   51.6223   -5.5625   -2.5335 C   0  0  0  0  0  0  0  0  0  0  0  0
   52.8404   -5.8314   -3.1155 C   0  0  0  0  0  0  0  0  0  0  0  0
   53.0144   -5.8263   -4.4748 C   0  0  0  0  0  0  0  0  0  0  0  0
   54.5383   -6.1646   -5.1843 S   0  0  0  0  0  0  0  0  0  0  0  0
   55.2191   -4.8773   -5.5762 O   0  0  0  0  0  0  0  0  0  0  0  0
   54.4827   -7.0446   -6.4016 O   0  0  0  0  0  0  0  0  0  0  0  0
   55.6536   -6.9751   -4.0540 C   0  0  0  0  0  0  0  0  0  0  0  0
   55.1634   -8.3450   -3.7135 C   0  0  0  0  0  0  0  0  0  0  0  0
   57.0848   -6.8915   -4.4683 C   0  0  0  0  0  0  0  0  0  0  0  0
   56.8555   -4.5158  -10.9967 C   0  0  0  0  0  0  0  0  0  0  0  0
   58.1059   -5.0767  -10.8115 C   0  0  0  0  0  0  0  0  0  0  0  0
   58.5747   -5.4097   -9.5602 C   0  0  0  0  0  0  0  0  0  0  0  0
   57.7311   -5.1534   -8.5067 C   0  0  0  0  0  0  0  0  0  0  0  0
   56.4613   -4.5878   -8.6588 C   0  0  0  0  0  0  0  0  0  0  0  0
   55.9995   -4.2581   -9.9082 C   0  0  0  0  0  0  0  0  0  0  0  0
   59.8733   -5.9823   -9.3839 N   0  0  0  0  0  0  0  0  0  0  0  0
   60.6818   -6.1926  -10.5356 C   0  0  0  0  0  0  0  0  0  0  0  0
   62.1388   -6.4566  -10.2782 C   0  0  0  0  0  0  0  0  0  0  0  0
   62.4061   -7.3864   -9.1429 C   0  0  0  0  0  0  0  0  0  0  0  0
   61.2033   -7.5818   -8.2417 C   0  0  0  0  0  0  0  0  0  0  0  0
   60.3746   -6.3526   -8.0821 C   0  0  0  0  0  0  0  0  0  0  0  0
   63.5411   -7.1341   -8.3479 N   0  0  0  0  0  0  0  0  0  0  0  0
   64.4921   -6.1964   -8.7787 C   0  0  0  0  0  0  0  0  0  0  0  0
   65.7860   -6.3732   -7.9791 C   0  0  0  0  0  0  0  0  0  0  0  0
   65.4252   -6.5300   -6.5835 N   0  0  0  0  0  0  0  0  0  0  0  0
   64.9419   -5.3371   -5.9649 C   0  0  0  0  0  0  0  0  0  0  0  0
   64.6671   -7.7114   -6.3251 C   0  0  0  0  0  0  0  0  0  0  0  0
   64.1057   -8.2402   -7.6433 C   0  0  0  0  0  0  0  0  0  0  0  0
   57.4158   -3.8293  -13.2355 C   0  0  0  0  0  0  0  0  0  0  0  0
   56.4463   -4.2048  -12.2842 O   0  0  0  0  0  0  0  0  0  0  0  0
 43 44  1  0  0  0
 44 24  1  0  0  0
 24 25  2  0  0  0
 25 26  1  0  0  0
 26 27  2  0  0  0
 27 28  1  0  0  0
 28 29  2  0  0  0
 29  1  1  0  0  0
  1  3  1  0  0  0
  3  4  2  0  0  0
  4  5  1  0  0  0
  5  6  2  0  0  0
  6  7  1  0  0  0
  6  8  1  0  0  0
  8 10  1  0  0  0
 10 12  1  0  0  0
 12 13  2  0  0  0
 13 14  1  0  0  0
 14 15  2  0  0  0
 15 16  1  0  0  0
 16 17  2  0  0  0
 17 18  1  0  0  0
 18 19  2  0  0  0
 18 20  2  0  0  0
 18 21  1  0  0  0
 21 22  1  0  0  0
 21 23  1  0  0  0
  8  9  2  0  0  0
 26 30  1  0  0  0
 30 31  1  0  0  0
 31 32  1  0  0  0
 32 33  1  0  0  0
 33 34  1  0  0  0
 34 35  1  0  0  0
 33 36  1  0  0  0
 36 37  1  0  0  0
 37 38  1  0  0  0
 38 39  1  0  0  0
 39 40  1  0  0  0
 39 41  1  0  0  0
 41 42  1  0  0  0
 29 24  1  0  0  0
  9  3  1  0  0  0
 35 30  1  0  0  0
 42 36  1  0  0  0
 17 12  1  0  0  0
  1  2  1  0  0  0
 10 11  1  0  0  0
M  END
> <minimizedAffinity>
-9.58954

> <CNNscore>
0.9050758481

> <CNNaffinity>
8.1857051849

> <CNN_VS>
7.4086842537

> <CNNaffinity_variance>
0.0465758257

$$$$
[H]c1nc(N([H])c2c([H])c([H])c(N3C([H])([H])C([H])([H])C([H])(N4C([H])([H])C([H])([H])N(C([H])([H])[H])C([H])([H])C4([H])[H])C([H])([H])C3([H])[H])c([H])c2OC([H])([H])[H])nc(N([H])c2c([H])c([H])c([H])c([H])c2S(=O)(=O)C([H])(C([H])([H])[H])C([H])([H])[H])c1Cl


 44 48  0  0  0  0  0  0  0  0999 V2000
   55.4251   -3.5014   -9.9730 N   0  0  0  0  0  0  0  0  0  0  0  0
   55.4514   -2.8756  -10.8555 H   0  0  0  0  0  0  0  0  0  0  0  0
   54.2256   -3.4623   -9.2139 C   0  0  0  0  0  0  0  0  0  0  0  0
   53.2108   -2.6114   -9.3854 N   0  0  0  0  0  0  0  0  0  0  0  0
   52.1041   -2.6309   -8.6321 C   0  0  0  0  0  0  0  0  0  0  0  0
   51.9766   -3.5597   -7.6260 C   0  0  0  0  0  0  0  0  0  0  0  0
   50.5283   -3.6005   -6.6253 Cl  0  0  0  0  0  0  0  0  0  0  0  0
   53.0346   -4.4701   -7.4241 C   0  0  0  0  0  0  0  0  0  0  0  0
   54.0957   -4.3699   -8.2272 N   0  0  0  0  0  0  0  0  0  0  0  0
   52.8786   -5.4086   -6.3925 N   0  0  0  0  0  0  0  0  0  0  0  0
   51.8587   -5.6510   -6.1643 H   0  0  0  0  0  0  0  0  0  0  0  0
   53.8172   -6.0900   -5.6031 C   0  0  0  0  0  0  0  0  0  0  0  0
   55.1176   -6.2265   -6.0408 C   0  0  0  0  0  0  0  0  0  0  0  0
   56.0661   -6.9055   -5.2652 C   0  0  0  0  0  0  0  0  0  0  0  0
   55.6869   -7.4325   -4.0672 C   0  0  0  0  0  0  0  0  0  0  0  0
   54.3880   -7.2945   -3.6329 C   0  0  0  0  0  0  0  0  0  0  0  0
   53.4400   -6.6353   -4.3709 C   0  0  0  0  0  0  0  0  0  0  0  0
   51.8262   -6.4711   -3.8151 S   0  0  0  0  0  0  0  0  0  0  0  0
   51.5178   -7.5506   -2.8082 O   0  0  0  0  0  0  0  0  0  0  0  0
   50.7811   -6.5358   -4.8934 O   0  0  0  0  0  0  0  0  0  0  0  0
   51.5492   -4.9275   -2.9672 C   0  0  0  0  0  0  0  0  0  0  0  0
   50.1013   -4.5593   -2.9918 C   0  0  0  0  0  0  0  0  0  0  0  0
   52.2050   -4.8583   -1.6285 C   0  0  0  0  0  0  0  0  0  0  0  0
   57.3260   -4.6778  -10.8532 C   0  0  0  0  0  0  0  0  0  0  0  0
   58.4858   -5.4164  -10.7065 C   0  0  0  0  0  0  0  0  0  0  0  0
   58.9744   -5.7630   -9.4665 C   0  0  0  0  0  0  0  0  0  0  0  0
   58.2456   -5.3340   -8.3841 C   0  0  0  0  0  0  0  0  0  0  0  0
   57.0693   -4.5862   -8.4969 C   0  0  0  0  0  0  0  0  0  0  0  0
   56.5872   -4.2439   -9.7352 C   0  0  0  0  0  0  0  0  0  0  0  0
   60.1796   -6.5211   -9.3306 N   0  0  0  0  0  0  0  0  0  0  0  0
   61.2212   -5.9951   -8.5166 C   0  0  0  0  0  0  0  0  0  0  0  0
   62.3009   -6.9631   -8.1216 C   0  0  0  0  0  0  0  0  0  0  0  0
   62.7546   -7.8635   -9.2210 C   0  0  0  0  0  0  0  0  0  0  0  0
   61.7968   -7.8934  -10.3951 C   0  0  0  0  0  0  0  0  0  0  0  0
   60.3640   -7.7885   -9.9959 C   0  0  0  0  0  0  0  0  0  0  0  0
   63.1048   -9.1840   -8.8785 N   0  0  0  0  0  0  0  0  0  0  0  0
   63.3414   -9.5098   -7.5342 C   0  0  0  0  0  0  0  0  0  0  0  0
   64.0669  -10.8559   -7.4523 C   0  0  0  0  0  0  0  0  0  0  0  0
   63.4117  -11.7677   -8.3698 N   0  0  0  0  0  0  0  0  0  0  0  0
   62.1128  -12.1884   -7.9512 C   0  0  0  0  0  0  0  0  0  0  0  0
   63.5226  -11.3709   -9.7364 C   0  0  0  0  0  0  0  0  0  0  0  0
   63.9317   -9.9007   -9.7956 C   0  0  0  0  0  0  0  0  0  0  0  0
   57.8329   -3.9282  -13.0846 C   0  0  0  0  0  0  0  0  0  0  0  0
   56.8907   -4.3637  -12.1313 O   0  0  0  0  0  0  0  0  0  0  0  0
 43 44  1  0  0  0
 44 24  1  0  0  0
 24 25  2  0  0  0
 25 26  1  0  0  0
 26 27  2  0  0  0
 27 28  1  0  0  0
 28 29  2  0  0  0
 29  1  1  0  0  0
  1  3  1  0  0  0
  3  4  2  0  0  0
  4  5  1  0  0  0
  5  6  2  0  0  0
  6  7  1  0  0  0
  6  8  1  0  0  0
  8 10  1  0  0  0
 10 12  1  0  0  0
 12 13  2  0  0  0
 13 14  1  0  0  0
 14 15  2  0  0  0
 15 16  1  0  0  0
 16 17  2  0  0  0
 17 18  1  0  0  0
 18 19  2  0  0  0
 18 20  2  0  0  0
 18 21  1  0  0  0
 21 22  1  0  0  0
 21 23  1  0  0  0
  8  9  2  0  0  0
 26 30  1  0  0  0
 30 31  1  0  0  0
 31 32  1  0  0  0
 32 33  1  0  0  0
 33 34  1  0  0  0
 34 35  1  0  0  0
 33 36  1  0  0  0
 36 37  1  0  0  0
 37 38  1  0  0  0
 38 39  1  0  0  0
 39 40  1  0  0  0
 39 41  1  0  0  0
 41 42  1  0  0  0
 29 24  1  0  0  0
  9  3  1  0  0  0
 35 30  1  0  0  0
 42 36  1  0  0  0
 17 12  1  0  0  0
  1  2  1  0  0  0
 10 11  1  0  0  0
M  END
> <minimizedAffinity>
-8.66592

> <CNNscore>
0.8474518657

> <CNNaffinity>
8.0202560425

> <CNN_VS>
6.7967810631

> <CNNaffinity_variance>
0.0223492254

$$$$
[H]c1nc(N([H])c2c([H])c([H])c(N3C([H])([H])C([H])([H])C([H])(N4C([H])([H])C([H])([H])N(C([H])([H])[H])C([H])([H])C4([H])[H])C([H])([H])C3([H])[H])c([H])c2OC([H])([H])[H])nc(N([H])c2c([H])c([H])c([H])c([H])c2S(=O)(=O)C([H])(C([H])([H])[H])C([H])([H])[H])c1Cl


 44 48  0  0  0  0  0  0  0  0999 V2000
   55.3047   -3.6498  -10.1447 N   0  0  0  0  0  0  0  0  0  0  0  0
   55.2302   -3.1627  -11.1082 H   0  0  0  0  0  0  0  0  0  0  0  0
   54.1556   -3.5720   -9.3140 C   0  0  0  0  0  0  0  0  0  0  0  0
   53.1400   -2.7157   -9.4503 N   0  0  0  0  0  0  0  0  0  0  0  0
   52.0827   -2.6977   -8.6292 C   0  0  0  0  0  0  0  0  0  0  0  0
   52.0100   -3.5912   -7.5863 C   0  0  0  0  0  0  0  0  0  0  0  0
   50.6270   -3.5824   -6.4963 Cl  0  0  0  0  0  0  0  0  0  0  0  0
   53.0700   -4.5064   -7.4203 C   0  0  0  0  0  0  0  0  0  0  0  0
   54.0794   -4.4449   -8.2911 N   0  0  0  0  0  0  0  0  0  0  0  0
   52.9703   -5.4084   -6.3499 N   0  0  0  0  0  0  0  0  0  0  0  0
   51.9643   -5.6511   -6.0670 H   0  0  0  0  0  0  0  0  0  0  0  0
   53.9506   -6.0530   -5.5804 C   0  0  0  0  0  0  0  0  0  0  0  0
   55.2459   -6.1396   -6.0450 C   0  0  0  0  0  0  0  0  0  0  0  0
   56.2356   -6.7815   -5.2896 C   0  0  0  0  0  0  0  0  0  0  0  0
   55.9018   -7.3221   -4.0842 C   0  0  0  0  0  0  0  0  0  0  0  0
   54.6078   -7.2339   -3.6229 C   0  0  0  0  0  0  0  0  0  0  0  0
   53.6201   -6.6118   -4.3409 C   0  0  0  0  0  0  0  0  0  0  0  0
   52.0132   -6.5094   -3.7517 S   0  0  0  0  0  0  0  0  0  0  0  0
   51.7610   -7.6119   -2.7540 O   0  0  0  0  0  0  0  0  0  0  0  0
   50.9496   -6.5951   -4.8104 O   0  0  0  0  0  0  0  0  0  0  0  0
   51.7016   -4.9874   -2.8773 C   0  0  0  0  0  0  0  0  0  0  0  0
   50.2562   -4.6163   -2.9535 C   0  0  0  0  0  0  0  0  0  0  0  0
   52.3005   -4.9531   -1.5109 C   0  0  0  0  0  0  0  0  0  0  0  0
   57.3333   -4.6190  -10.9917 C   0  0  0  0  0  0  0  0  0  0  0  0
   58.5579   -5.2395  -10.8251 C   0  0  0  0  0  0  0  0  0  0  0  0
   59.0510   -5.5506   -9.5775 C   0  0  0  0  0  0  0  0  0  0  0  0
   58.2587   -5.2100   -8.5083 C   0  0  0  0  0  0  0  0  0  0  0  0
   57.0161   -4.5825   -8.6413 C   0  0  0  0  0  0  0  0  0  0  0  0
   56.5299   -4.2750   -9.8871 C   0  0  0  0  0  0  0  0  0  0  0  0
   60.3228   -6.1857   -9.4209 N   0  0  0  0  0  0  0  0  0  0  0  0
   61.1557   -6.3234  -10.5661 C   0  0  0  0  0  0  0  0  0  0  0  0
   62.5944   -6.6645  -10.2971 C   0  0  0  0  0  0  0  0  0  0  0  0
   62.7960   -7.7012   -9.2436 C   0  0  0  0  0  0  0  0  0  0  0  0
   61.5618   -7.9300   -8.3942 C   0  0  0  0  0  0  0  0  0  0  0  0
   60.7733   -6.6892   -8.1455 C   0  0  0  0  0  0  0  0  0  0  0  0
   63.9162   -7.5641   -8.4010 N   0  0  0  0  0  0  0  0  0  0  0  0
   65.1633   -7.2393   -8.9564 C   0  0  0  0  0  0  0  0  0  0  0  0
   66.2693   -7.5237   -7.9362 C   0  0  0  0  0  0  0  0  0  0  0  0
   65.8310   -7.0081   -6.6538 N   0  0  0  0  0  0  0  0  0  0  0  0
   65.8116   -5.5826   -6.5703 C   0  0  0  0  0  0  0  0  0  0  0  0
   64.6765   -7.6732   -6.1419 C   0  0  0  0  0  0  0  0  0  0  0  0
   64.0006   -8.4401   -7.2767 C   0  0  0  0  0  0  0  0  0  0  0  0
   57.8096   -3.7863  -13.2002 C   0  0  0  0  0  0  0  0  0  0  0  0
   56.8973   -4.3346  -12.2765 O   0  0  0  0  0  0  0  0  0  0  0  0
 43 44  1  0  0  0
 44 24  1  0  0  0
 24 25  2  0  0  0
 25 26  1  0  0  0
 26 27  2  0  0  0
 27 28  1  0  0  0
 28 29  2  0  0  0
 29  1  1  0  0  0
  1  3  1  0  0  0
  3  4  2  0  0  0
  4  5  1  0  0  0
  5  6  2  0  0  0
  6  7  1  0  0  0
  6  8  1  0  0  0
  8 10  1  0  0  0
 10 12  1  0  0  0
 12 13  2  0  0  0
 13 14  1  0  0  0
 14 15  2  0  0  0
 15 16  1  0  0  0
 16 17  2  0  0  0
 17 18  1  0  0  0
 18 19  2  0  0  0
 18 20  2  0  0  0
 18 21  1  0  0  0
 21 22  1  0  0  0
 21 23  1  0  0  0
  8  9  2  0  0  0
 26 30  1  0  0  0
 30 31  1  0  0  0
 31 32  1  0  0  0
 32 33  1  0  0  0
 33 34  1  0  0  0
 34 35  1  0  0  0
 33 36  1  0  0  0
 36 37  1  0  0  0
 37 38  1  0  0  0
 38 39  1  0  0  0
 39 40  1  0  0  0
 39 41  1  0  0  0
 41 42  1  0  0  0
 29 24  1  0  0  0
  9  3  1  0  0  0
 35 30  1  0  0  0
 42 36  1  0  0  0
 17 12  1  0  0  0
  1  2  1  0  0  0
 10 11  1  0  0  0
M  END
> <minimizedAffinity>
-8.62103

> <CNNscore>
0.8268525004

> <CNNaffinity>
8.0621051788

> <CNN_VS>
6.6661720276

> <CNNaffinity_variance>
0.0038069424

$$$$
[H]c1nc(N([H])c2c([H])c([H])c(N3C([H])([H])C([H])([H])C([H])(N4C([H])([H])C([H])([H])N(C([H])([H])[H])C([H])([H])C4([H])[H])C([H])([H])C3([H])[H])c([H])c2OC([H])([H])[H])nc(N([H])c2c([H])c([H])c([H])c([H])c2S(=O)(=O)C([H])(C([H])([H])[H])C([H])([H])[H])c1Cl


 44 48  0  0  0  0  0  0  0  0999 V2000
   54.4368   -3.1895   -9.7109 N   0  0  0  0  0  0  0  0  0  0  0  0
   54.3212   -2.4714  -10.5123 H   0  0  0  0  0  0  0  0  0  0  0  0
   53.3430   -3.3062   -8.8129 C   0  0  0  0  0  0  0  0  0  0  0  0
   52.2727   -2.5091   -8.7654 N   0  0  0  0  0  0  0  0  0  0  0  0
   51.2730   -2.6773   -7.8908 C   0  0  0  0  0  0  0  0  0  0  0  0
   51.3217   -3.7114   -6.9855 C   0  0  0  0  0  0  0  0  0  0  0  0
   50.0162   -3.9483   -5.8279 Cl  0  0  0  0  0  0  0  0  0  0  0  0
   52.4417   -4.5679   -7.0147 C   0  0  0  0  0  0  0  0  0  0  0  0
   53.3857   -4.3173   -7.9241 N   0  0  0  0  0  0  0  0  0  0  0  0
   52.4659   -5.6160   -6.0819 N   0  0  0  0  0  0  0  0  0  0  0  0
   51.4973   -5.9824   -5.8017 H   0  0  0  0  0  0  0  0  0  0  0  0
   53.5302   -6.2742   -5.4475 C   0  0  0  0  0  0  0  0  0  0  0  0
   54.6607   -6.6069   -6.1634 C   0  0  0  0  0  0  0  0  0  0  0  0
   55.7312   -7.2658   -5.5451 C   0  0  0  0  0  0  0  0  0  0  0  0
   55.6418   -7.5758   -4.2212 C   0  0  0  0  0  0  0  0  0  0  0  0
   54.5120   -7.2422   -3.5091 C   0  0  0  0  0  0  0  0  0  0  0  0
   53.4505   -6.5977   -4.0885 C   0  0  0  0  0  0  0  0  0  0  0  0
   52.0505   -6.1880   -3.1872 S   0  0  0  0  0  0  0  0  0  0  0  0
   50.8141   -6.6211   -3.9342 O   0  0  0  0  0  0  0  0  0  0  0  0
   51.9105   -4.7242   -2.8755 O   0  0  0  0  0  0  0  0  0  0  0  0
   51.9813   -7.0245   -1.6144 C   0  0  0  0  0  0  0  0  0  0  0  0
   52.7471   -6.2703   -0.5764 C   0  0  0  0  0  0  0  0  0  0  0  0
   50.6023   -7.4362   -1.2199 C   0  0  0  0  0  0  0  0  0  0  0  0
   56.3088   -4.0361   -8.4653 C   0  0  0  0  0  0  0  0  0  0  0  0
   57.5148   -4.7058   -8.3691 C   0  0  0  0  0  0  0  0  0  0  0  0
   58.1325   -5.2520   -9.4720 C   0  0  0  0  0  0  0  0  0  0  0  0
   57.4838   -5.0945  -10.6726 C   0  0  0  0  0  0  0  0  0  0  0  0
   56.2642   -4.4233  -10.8051 C   0  0  0  0  0  0  0  0  0  0  0  0
   55.6534   -3.8809   -9.7025 C   0  0  0  0  0  0  0  0  0  0  0  0
   59.3763   -5.9483   -9.3555 N   0  0  0  0  0  0  0  0  0  0  0  0
   60.1153   -5.8153   -8.1470 C   0  0  0  0  0  0  0  0  0  0  0  0
   61.2116   -6.8204   -7.9312 C   0  0  0  0  0  0  0  0  0  0  0  0
   62.0327   -7.1073   -9.1430 C   0  0  0  0  0  0  0  0  0  0  0  0
   61.3807   -6.6324  -10.4261 C   0  0  0  0  0  0  0  0  0  0  0  0
   59.8958   -6.7681  -10.4237 C   0  0  0  0  0  0  0  0  0  0  0  0
   62.4922   -8.4267   -9.3209 N   0  0  0  0  0  0  0  0  0  0  0  0
   61.8068   -9.4860   -8.7066 C   0  0  0  0  0  0  0  0  0  0  0  0
   62.6861  -10.7397   -8.7147 C   0  0  0  0  0  0  0  0  0  0  0  0
   63.2770  -10.8566  -10.0337 N   0  0  0  0  0  0  0  0  0  0  0  0
   62.3541  -11.2248  -11.0593 C   0  0  0  0  0  0  0  0  0  0  0  0
   64.1615   -9.7831  -10.3539 C   0  0  0  0  0  0  0  0  0  0  0  0
   63.9045   -8.6238   -9.3934 C   0  0  0  0  0  0  0  0  0  0  0  0
   56.5121   -3.4656   -6.1349 C   0  0  0  0  0  0  0  0  0  0  0  0
   55.7422   -3.5105   -7.3145 O   0  0  0  0  0  0  0  0  0  0  0  0
 43 44  1  0  0  0
 44 24  1  0  0  0
 24 25  2  0  0  0
 25 26  1  0  0  0
 26 27  2  0  0  0
 27 28  1  0  0  0
 28 29  2  0  0  0
 29  1  1  0  0  0
  1  3  1  0  0  0
  3  4  2  0  0  0
  4  5  1  0  0  0
  5  6  2  0  0  0
  6  7  1  0  0  0
  6  8  1  0  0  0
  8 10  1  0  0  0
 10 12  1  0  0  0
 12 13  2  0  0  0
 13 14  1  0  0  0
 14 15  2  0  0  0
 15 16  1  0  0  0
 16 17  2  0  0  0
 17 18  1  0  0  0
 18 19  2  0  0  0
 18 20  2  0  0  0
 18 21  1  0  0  0
 21 22  1  0  0  0
 21 23  1  0  0  0
  8  9  2  0  0  0
 26 30  1  0  0  0
 30 31  1  0  0  0
 31 32  1  0  0  0
 32 33  1  0  0  0
 33 34  1  0  0  0
 34 35  1  0  0  0
 33 36  1  0  0  0
 36 37  1  0  0  0
 37 38  1  0  0  0
 38 39  1  0  0  0
 39 40  1  0  0  0
 39 41  1  0  0  0
 41 42  1  0  0  0
 29 24  1  0  0  0
  9  3  1  0  0  0
 35 30  1  0  0  0
 42 36  1  0  0  0
 17 12  1  0  0  0
  1  2  1  0  0  0
 10 11  1  0  0  0
M  END
> <minimizedAffinity>
-7.68089

> <CNNscore>
0.8006752729

> <CNNaffinity>
8.0626792908

> <CNN_VS>
6.4555878639

> <CNNaffinity_variance>
0.0378356501

$$$$
[H]c1nc(N([H])c2c([H])c([H])c(N3C([H])([H])C([H])([H])C([H])(N4C([H])([H])C([H])([H])N(C([H])([H])[H])C([H])([H])C4([H])[H])C([H])([H])C3([H])[H])c([H])c2OC([H])([H])[H])nc(N([H])c2c([H])c([H])c([H])c([H])c2S(=O)(=O)C([H])(C([H])([H])[H])C([H])([H])[H])c1Cl


 44 48  0  0  0  0  0  0  0  0999 V2000
   55.1061   -3.4214   -9.6413 N   0  0  0  0  0  0  0  0  0  0  0  0
   55.0960   -2.7409  -10.4827 H   0  0  0  0  0  0  0  0  0  0  0  0
   53.9253   -3.4594   -8.8534 C   0  0  0  0  0  0  0  0  0  0  0  0
   52.8344   -2.7097   -9.0300 N   0  0  0  0  0  0  0  0  0  0  0  0
   51.7513   -2.7979   -8.2480 C   0  0  0  0  0  0  0  0  0  0  0  0
   51.7305   -3.6939   -7.2050 C   0  0  0  0  0  0  0  0  0  0  0  0
   50.3147   -3.8241   -6.1662 Cl  0  0  0  0  0  0  0  0  0  0  0  0
   52.8704   -4.4978   -6.9969 C   0  0  0  0  0  0  0  0  0  0  0  0
   53.8998   -4.3353   -7.8304 N   0  0  0  0  0  0  0  0  0  0  0  0
   52.8227   -5.4050   -5.9273 N   0  0  0  0  0  0  0  0  0  0  0  0
   51.8407   -5.5670   -5.5269 H   0  0  0  0  0  0  0  0  0  0  0  0
   53.8293   -6.1414   -5.2847 C   0  0  0  0  0  0  0  0  0  0  0  0
   55.0008   -6.4352   -5.9500 C   0  0  0  0  0  0  0  0  0  0  0  0
   56.0146   -7.1710   -5.3230 C   0  0  0  0  0  0  0  0  0  0  0  0
   55.8287   -7.5954   -4.0415 C   0  0  0  0  0  0  0  0  0  0  0  0
   54.6582   -7.3004   -3.3799 C   0  0  0  0  0  0  0  0  0  0  0  0
   53.6503   -6.5825   -3.9689 C   0  0  0  0  0  0  0  0  0  0  0  0
   52.1986   -6.2224   -3.1306 S   0  0  0  0  0  0  0  0  0  0  0  0
   51.0109   -6.6692   -3.9455 O   0  0  0  0  0  0  0  0  0  0  0  0
   52.0087   -4.7685   -2.7998 O   0  0  0  0  0  0  0  0  0  0  0  0
   52.0724   -7.0905   -1.5785 C   0  0  0  0  0  0  0  0  0  0  0  0
   52.8439   -6.3857   -0.5105 C   0  0  0  0  0  0  0  0  0  0  0  0
   50.6732   -7.4634   -1.2178 C   0  0  0  0  0  0  0  0  0  0  0  0
   56.9685   -4.5629  -10.6416 C   0  0  0  0  0  0  0  0  0  0  0  0
   58.1451   -5.2858  -10.5695 C   0  0  0  0  0  0  0  0  0  0  0  0
   58.7103   -5.6353   -9.3633 C   0  0  0  0  0  0  0  0  0  0  0  0
   58.0401   -5.2256   -8.2363 C   0  0  0  0  0  0  0  0  0  0  0  0
   56.8489   -4.4942   -8.2736 C   0  0  0  0  0  0  0  0  0  0  0  0
   56.2904   -4.1489   -9.4785 C   0  0  0  0  0  0  0  0  0  0  0  0
   59.9318   -6.3768   -9.3048 N   0  0  0  0  0  0  0  0  0  0  0  0
   59.9913   -7.6355   -9.9656 C   0  0  0  0  0  0  0  0  0  0  0  0
   61.3664   -8.2037  -10.1778 C   0  0  0  0  0  0  0  0  0  0  0  0
   62.2792   -8.0637   -9.0064 C   0  0  0  0  0  0  0  0  0  0  0  0
   61.7839   -7.0579   -7.9866 C   0  0  0  0  0  0  0  0  0  0  0  0
   61.0895   -5.8873   -8.5954 C   0  0  0  0  0  0  0  0  0  0  0  0
   63.6418   -7.8216   -9.2679 N   0  0  0  0  0  0  0  0  0  0  0  0
   64.2738   -8.4972  -10.3231 C   0  0  0  0  0  0  0  0  0  0  0  0
   65.7930   -8.3776  -10.1725 C   0  0  0  0  0  0  0  0  0  0  0  0
   66.0969   -6.9997   -9.8384 N   0  0  0  0  0  0  0  0  0  0  0  0
   65.9061   -6.0796  -10.9137 C   0  0  0  0  0  0  0  0  0  0  0  0
   65.5676   -6.5943   -8.5764 C   0  0  0  0  0  0  0  0  0  0  0  0
   64.4927   -7.5898   -8.1451 C   0  0  0  0  0  0  0  0  0  0  0  0
   57.3440   -3.8810  -12.9201 C   0  0  0  0  0  0  0  0  0  0  0  0
   56.4546   -4.2449  -11.8892 O   0  0  0  0  0  0  0  0  0  0  0  0
 43 44  1  0  0  0
 44 24  1  0  0  0
 24 25  2  0  0  0
 25 26  1  0  0  0
 26 27  2  0  0  0
 27 28  1  0  0  0
 28 29  2  0  0  0
 29  1  1  0  0  0
  1  3  1  0  0  0
  3  4  2  0  0  0
  4  5  1  0  0  0
  5  6  2  0  0  0
  6  7  1  0  0  0
  6  8  1  0  0  0
  8 10  1  0  0  0
 10 12  1  0  0  0
 12 13  2  0  0  0
 13 14  1  0  0  0
 14 15  2  0  0  0
 15 16  1  0  0  0
 16 17  2  0  0  0
 17 18  1  0  0  0
 18 19  2  0  0  0
 18 20  2  0  0  0
 18 21  1  0  0  0
 21 22  1  0  0  0
 21 23  1  0  0  0
  8  9  2  0  0  0
 26 30  1  0  0  0
 30 31  1  0  0  0
 31 32  1  0  0  0
 32 33  1  0  0  0
 33 34  1  0  0  0
 34 35  1  0  0  0
 33 36  1  0  0  0
 36 37  1  0  0  0
 37 38  1  0  0  0
 38 39  1  0  0  0
 39 40  1  0  0  0
 39 41  1  0  0  0
 41 42  1  0  0  0
 29 24  1  0  0  0
  9  3  1  0  0  0
 35 30  1  0  0  0
 42 36  1  0  0  0
 17 12  1  0  0  0
  1  2  1  0  0  0
 10 11  1  0  0  0
M  END
> <minimizedAffinity>
-8.42219

> <CNNscore>
0.7948920727

> <CNNaffinity>
8.0311450958

> <CNN_VS>
6.3838934898

> <CNNaffinity_variance>
0.0111624869

$$$$
[H]c1nc(N([H])c2c([H])c([H])c(N3C([H])([H])C([H])([H])C([H])(N4C([H])([H])C([H])([H])N(C([H])([H])[H])C([H])([H])C4([H])[H])C([H])([H])C3([H])[H])c([H])c2OC([H])([H])[H])nc(N([H])c2c([H])c([H])c([H])c([H])c2S(=O)(=O)C([H])(C([H])([H])[H])C([H])([H])[H])c1Cl


 44 48  0  0  0  0  0  0  0  0999 V2000
   55.3316   -3.2442   -9.5536 N   0  0  0  0  0  0  0  0  0  0  0  0
   55.4410   -2.3081  -10.0856 H   0  0  0  0  0  0  0  0  0  0  0  0
   54.0651   -3.4799   -8.9563 C   0  0  0  0  0  0  0  0  0  0  0  0
   52.9382   -2.8078   -9.2049 N   0  0  0  0  0  0  0  0  0  0  0  0
   51.7737   -3.0843   -8.6049 C   0  0  0  0  0  0  0  0  0  0  0  0
   51.7025   -4.1033   -7.6841 C   0  0  0  0  0  0  0  0  0  0  0  0
   50.1795   -4.4814   -6.8852 Cl  0  0  0  0  0  0  0  0  0  0  0  0
   52.8788   -4.8287   -7.4036 C   0  0  0  0  0  0  0  0  0  0  0  0
   53.9898   -4.4768   -8.0537 N   0  0  0  0  0  0  0  0  0  0  0  0
   52.7786   -5.8644   -6.4619 N   0  0  0  0  0  0  0  0  0  0  0  0
   52.9718   -6.8429   -6.8570 H   0  0  0  0  0  0  0  0  0  0  0  0
   52.4710   -5.8524   -5.0931 C   0  0  0  0  0  0  0  0  0  0  0  0
   51.3074   -5.2582   -4.6525 C   0  0  0  0  0  0  0  0  0  0  0  0
   50.9868   -5.2363   -3.2890 C   0  0  0  0  0  0  0  0  0  0  0  0
   51.8427   -5.8119   -2.3986 C   0  0  0  0  0  0  0  0  0  0  0  0
   53.0035   -6.4046   -2.8414 C   0  0  0  0  0  0  0  0  0  0  0  0
   53.3417   -6.4405   -4.1689 C   0  0  0  0  0  0  0  0  0  0  0  0
   54.7911   -7.1838   -4.7045 S   0  0  0  0  0  0  0  0  0  0  0  0
   54.7320   -7.4095   -6.1944 O   0  0  0  0  0  0  0  0  0  0  0  0
   55.0990   -8.5022   -4.0515 O   0  0  0  0  0  0  0  0  0  0  0  0
   56.2257   -6.1621   -4.4281 C   0  0  0  0  0  0  0  0  0  0  0  0
   55.9469   -5.1228   -3.3914 C   0  0  0  0  0  0  0  0  0  0  0  0
   57.4824   -6.9423   -4.2312 C   0  0  0  0  0  0  0  0  0  0  0  0
   56.9150   -4.5524   -8.3070 C   0  0  0  0  0  0  0  0  0  0  0  0
   58.0287   -5.3667   -8.2143 C   0  0  0  0  0  0  0  0  0  0  0  0
   58.7521   -5.7377   -9.3259 C   0  0  0  0  0  0  0  0  0  0  0  0
   58.3053   -5.2538  -10.5314 C   0  0  0  0  0  0  0  0  0  0  0  0
   57.1837   -4.4287  -10.6605 C   0  0  0  0  0  0  0  0  0  0  0  0
   56.4669   -4.0623   -9.5493 C   0  0  0  0  0  0  0  0  0  0  0  0
   59.8977   -6.5867   -9.2148 N   0  0  0  0  0  0  0  0  0  0  0  0
   60.9638   -6.1765   -8.3666 C   0  0  0  0  0  0  0  0  0  0  0  0
   61.9658   -7.2377   -8.0080 C   0  0  0  0  0  0  0  0  0  0  0  0
   62.3678   -8.1160   -9.1448 C   0  0  0  0  0  0  0  0  0  0  0  0
   61.4256   -8.0211  -10.3282 C   0  0  0  0  0  0  0  0  0  0  0  0
   59.9990   -7.8314   -9.9382 C   0  0  0  0  0  0  0  0  0  0  0  0
   62.6175   -9.4730   -8.8625 N   0  0  0  0  0  0  0  0  0  0  0  0
   62.4879   -9.9404   -7.5457 C   0  0  0  0  0  0  0  0  0  0  0  0
   63.1689  -11.3058   -7.4162 C   0  0  0  0  0  0  0  0  0  0  0  0
   62.7846  -12.1021   -8.5654 N   0  0  0  0  0  0  0  0  0  0  0  0
   61.4223  -12.5302   -8.5534 C   0  0  0  0  0  0  0  0  0  0  0  0
   63.2550  -11.5708   -9.8038 C   0  0  0  0  0  0  0  0  0  0  0  0
   63.6611  -10.1131   -9.5973 C   0  0  0  0  0  0  0  0  0  0  0  0
   56.6727   -3.1113   -6.3934 C   0  0  0  0  0  0  0  0  0  0  0  0
   56.2330   -4.2178   -7.1474 O   0  0  0  0  0  0  0  0  0  0  0  0
 43 44  1  0  0  0
 44 24  1  0  0  0
 24 25  2  0  0  0
 25 26  1  0  0  0
 26 27  2  0  0  0
 27 28  1  0  0  0
 28 29  2  0  0  0
 29  1  1  0  0  0
  1  3  1  0  0  0
  3  4  2  0  0  0
  4  5  1  0  0  0
  5  6  2  0  0  0
  6  7  1  0  0  0
  6  8  1  0  0  0
  8 10  1  0  0  0
 10 12  1  0  0  0
 12 13  2  0  0  0
 13 14  1  0  0  0
 14 15  2  0  0  0
 15 16  1  0  0  0
 16 17  2  0  0  0
 17 18  1  0  0  0
 18 19  2  0  0  0
 18 20  2  0  0  0
 18 21  1  0  0  0
 21 22  1  0  0  0
 21 23  1  0  0  0
  8  9  2  0  0  0
 26 30  1  0  0  0
 30 31  1  0  0  0
 31 32  1  0  0  0
 32 33  1  0  0  0
 33 34  1  0  0  0
 34 35  1  0  0  0
 33 36  1  0  0  0
 36 37  1  0  0  0
 37 38  1  0  0  0
 38 39  1  0  0  0
 39 40  1  0  0  0
 39 41  1  0  0  0
 41 42  1  0  0  0
 29 24  1  0  0  0
  9  3  1  0  0  0
 35 30  1  0  0  0
 42 36  1  0  0  0
 17 12  1  0  0  0
  1  2  1  0  0  0
 10 11  1  0  0  0
M  END
> <minimizedAffinity>
-8.22236

> <CNNscore>
0.7682594061

> <CNNaffinity>
7.9026174545

> <CNN_VS>
6.0712599754

> <CNNaffinity_variance>
0.0818732232

$$$$
[H]c1nc(N([H])c2c([H])c([H])c(N3C([H])([H])C([H])([H])C([H])(N4C([H])([H])C([H])([H])N(C([H])([H])[H])C([H])([H])C4([H])[H])C([H])([H])C3([H])[H])c([H])c2OC([H])([H])[H])nc(N([H])c2c([H])c([H])c([H])c([H])c2S(=O)(=O)C([H])(C([H])([H])[H])C([H])([H])[H])c1Cl


 44 48  0  0  0  0  0  0  0  0999 V2000
   54.4406   -3.2901   -9.9103 N   0  0  0  0  0  0  0  0  0  0  0  0
   54.2791   -2.6669  -10.7802 H   0  0  0  0  0  0  0  0  0  0  0  0
   53.3703   -3.3537   -8.9791 C   0  0  0  0  0  0  0  0  0  0  0  0
   52.3526   -2.4941   -8.8869 N   0  0  0  0  0  0  0  0  0  0  0  0
   51.3725   -2.6145   -7.9828 C   0  0  0  0  0  0  0  0  0  0  0  0
   51.3865   -3.6629   -7.0929 C   0  0  0  0  0  0  0  0  0  0  0  0
   50.1059   -3.8376   -5.8971 Cl  0  0  0  0  0  0  0  0  0  0  0  0
   52.4507   -4.5851   -7.1693 C   0  0  0  0  0  0  0  0  0  0  0  0
   53.3793   -4.3786   -8.1052 N   0  0  0  0  0  0  0  0  0  0  0  0
   52.4403   -5.6465   -6.2513 N   0  0  0  0  0  0  0  0  0  0  0  0
   51.4668   -6.0515   -6.0532 H   0  0  0  0  0  0  0  0  0  0  0  0
   53.4751   -6.2764   -5.5436 C   0  0  0  0  0  0  0  0  0  0  0  0
   54.6417   -6.6241   -6.1912 C   0  0  0  0  0  0  0  0  0  0  0  0
   55.6834   -7.2552   -5.4992 C   0  0  0  0  0  0  0  0  0  0  0  0
   55.5297   -7.5230   -4.1720 C   0  0  0  0  0  0  0  0  0  0  0  0
   54.3639   -7.1745   -3.5283 C   0  0  0  0  0  0  0  0  0  0  0  0
   53.3292   -6.5564   -4.1805 C   0  0  0  0  0  0  0  0  0  0  0  0
   51.8838   -6.1278   -3.3637 S   0  0  0  0  0  0  0  0  0  0  0  0
   50.6884   -6.5776   -4.1656 O   0  0  0  0  0  0  0  0  0  0  0  0
   51.7285   -4.6576   -3.0920 O   0  0  0  0  0  0  0  0  0  0  0  0
   51.7308   -6.9298   -1.7789 C   0  0  0  0  0  0  0  0  0  0  0  0
   51.6014   -8.4094   -1.9417 C   0  0  0  0  0  0  0  0  0  0  0  0
   52.7493   -6.4814   -0.7847 C   0  0  0  0  0  0  0  0  0  0  0  0
   56.3487   -3.9651   -8.6158 C   0  0  0  0  0  0  0  0  0  0  0  0
   57.5820   -4.5750   -8.4772 C   0  0  0  0  0  0  0  0  0  0  0  0
   58.2201   -5.1735   -9.5407 C   0  0  0  0  0  0  0  0  0  0  0  0
   57.5631   -5.1308  -10.7464 C   0  0  0  0  0  0  0  0  0  0  0  0
   56.3162   -4.5225  -10.9212 C   0  0  0  0  0  0  0  0  0  0  0  0
   55.6852   -3.9276   -9.8577 C   0  0  0  0  0  0  0  0  0  0  0  0
   59.4923   -5.8070   -9.3801 N   0  0  0  0  0  0  0  0  0  0  0  0
   60.2774   -6.0517  -10.5411 C   0  0  0  0  0  0  0  0  0  0  0  0
   61.7231   -6.3845  -10.3005 C   0  0  0  0  0  0  0  0  0  0  0  0
   61.9588   -7.3292   -9.1704 C   0  0  0  0  0  0  0  0  0  0  0  0
   60.7581   -7.4704   -8.2564 C   0  0  0  0  0  0  0  0  0  0  0  0
   59.9898   -6.2041   -8.0848 C   0  0  0  0  0  0  0  0  0  0  0  0
   63.1130   -7.1327   -8.3875 N   0  0  0  0  0  0  0  0  0  0  0  0
   63.6999   -5.8593   -8.3287 C   0  0  0  0  0  0  0  0  0  0  0  0
   65.1161   -5.9727   -7.7574 C   0  0  0  0  0  0  0  0  0  0  0  0
   65.0602   -6.8570   -6.6096 N   0  0  0  0  0  0  0  0  0  0  0  0
   64.4040   -6.2990   -5.4705 C   0  0  0  0  0  0  0  0  0  0  0  0
   64.6887   -8.1940   -6.9438 C   0  0  0  0  0  0  0  0  0  0  0  0
   64.0579   -8.2018   -8.3347 C   0  0  0  0  0  0  0  0  0  0  0  0
   56.3888   -3.5250   -6.2489 C   0  0  0  0  0  0  0  0  0  0  0  0
   55.7626   -3.3816   -7.5033 O   0  0  0  0  0  0  0  0  0  0  0  0
 43 44  1  0  0  0
 44 24  1  0  0  0
 24 25  2  0  0  0
 25 26  1  0  0  0
 26 27  2  0  0  0
 27 28  1  0  0  0
 28 29  2  0  0  0
 29  1  1  0  0  0
  1  3  1  0  0  0
  3  4  2  0  0  0
  4  5  1  0  0  0
  5  6  2  0  0  0
  6  7  1  0  0  0
  6  8  1  0  0  0
  8 10  1  0  0  0
 10 12  1  0  0  0
 12 13  2  0  0  0
 13 14  1  0  0  0
 14 15  2  0  0  0
 15 16  1  0  0  0
 16 17  2  0  0  0
 17 18  1  0  0  0
 18 19  2  0  0  0
 18 20  2  0  0  0
 18 21  1  0  0  0
 21 22  1  0  0  0
 21 23  1  0  0  0
  8  9  2  0  0  0
 26 30  1  0  0  0
 30 31  1  0  0  0
 31 32  1  0  0  0
 32 33  1  0  0  0
 33 34  1  0  0  0
 34 35  1  0  0  0
 33 36  1  0  0  0
 36 37  1  0  0  0
 37 38  1  0  0  0
 38 39  1  0  0  0
 39 40  1  0  0  0
 39 41  1  0  0  0
 41 42  1  0  0  0
 29 24  1  0  0  0
  9  3  1  0  0  0
 35 30  1  0  0  0
 42 36  1  0  0  0
 17 12  1  0  0  0
  1  2  1  0  0  0
 10 11  1  0  0  0
M  END
> <minimizedAffinity>
-7.66586

> <CNNscore>
0.7144402862

> <CNNaffinity>
7.9639549255

> <CNN_VS>
5.6897702217

> <CNNaffinity_variance>
0.0261221416

$$$$
[H]c1nc(N([H])c2c([H])c([H])c(N3C([H])([H])C([H])([H])C([H])(N4C([H])([H])C([H])([H])N(C([H])([H])[H])C([H])([H])C4([H])[H])C([H])([H])C3([H])[H])c([H])c2OC([H])([H])[H])nc(N([H])c2c([H])c([H])c([H])c([H])c2S(=O)(=O)C([H])(C([H])([H])[H])C([H])([H])[H])c1Cl


 44 48  0  0  0  0  0  0  0  0999 V2000
   54.9516   -3.6523   -9.2162 N   0  0  0  0  0  0  0  0  0  0  0  0
   54.8182   -2.9220  -10.0037 H   0  0  0  0  0  0  0  0  0  0  0  0
   53.8340   -3.8676   -8.3669 C   0  0  0  0  0  0  0  0  0  0  0  0
   52.6512   -3.2532   -8.4484 N   0  0  0  0  0  0  0  0  0  0  0  0
   51.6361   -3.5058   -7.6128 C   0  0  0  0  0  0  0  0  0  0  0  0
   51.7879   -4.4373   -6.6125 C   0  0  0  0  0  0  0  0  0  0  0  0
   50.4639   -4.7829   -5.5043 Cl  0  0  0  0  0  0  0  0  0  0  0  0
   53.0278   -5.1006   -6.5048 C   0  0  0  0  0  0  0  0  0  0  0  0
   53.9774   -4.7789   -7.3856 N   0  0  0  0  0  0  0  0  0  0  0  0
   53.1559   -6.0476   -5.4771 N   0  0  0  0  0  0  0  0  0  0  0  0
   52.2329   -6.5068   -5.1801 H   0  0  0  0  0  0  0  0  0  0  0  0
   54.2754   -6.5046   -4.7657 C   0  0  0  0  0  0  0  0  0  0  0  0
   55.4681   -6.7232   -5.4222 C   0  0  0  0  0  0  0  0  0  0  0  0
   56.5944   -7.1811   -4.7264 C   0  0  0  0  0  0  0  0  0  0  0  0
   56.4972   -7.4094   -3.3866 C   0  0  0  0  0  0  0  0  0  0  0  0
   55.3052   -7.1901   -2.7339 C   0  0  0  0  0  0  0  0  0  0  0  0
   54.1882   -6.7424   -3.3895 C   0  0  0  0  0  0  0  0  0  0  0  0
   52.7110   -6.4730   -2.5616 S   0  0  0  0  0  0  0  0  0  0  0  0
   51.5846   -7.1713   -3.2812 O   0  0  0  0  0  0  0  0  0  0  0  0
   52.3320   -5.0266   -2.4080 O   0  0  0  0  0  0  0  0  0  0  0  0
   52.7199   -7.1469   -0.9111 C   0  0  0  0  0  0  0  0  0  0  0  0
   53.2649   -6.1558    0.0653 C   0  0  0  0  0  0  0  0  0  0  0  0
   51.4282   -7.7852   -0.5224 C   0  0  0  0  0  0  0  0  0  0  0  0
   56.8232   -4.5804  -10.4028 C   0  0  0  0  0  0  0  0  0  0  0  0
   58.0673   -5.1821  -10.4512 C   0  0  0  0  0  0  0  0  0  0  0  0
   58.7673   -5.4964   -9.3077 C   0  0  0  0  0  0  0  0  0  0  0  0
   58.1609   -5.1786   -8.1167 C   0  0  0  0  0  0  0  0  0  0  0  0
   56.9045   -4.5704   -8.0321 C   0  0  0  0  0  0  0  0  0  0  0  0
   56.2116   -4.2597   -9.1751 C   0  0  0  0  0  0  0  0  0  0  0  0
   60.0566   -6.1120   -9.3740 N   0  0  0  0  0  0  0  0  0  0  0  0
   60.7150   -6.1686  -10.6339 C   0  0  0  0  0  0  0  0  0  0  0  0
   62.1820   -6.4934  -10.5965 C   0  0  0  0  0  0  0  0  0  0  0  0
   62.5487   -7.5819   -9.6449 C   0  0  0  0  0  0  0  0  0  0  0  0
   61.4549   -7.8833   -8.6399 C   0  0  0  0  0  0  0  0  0  0  0  0
   60.6950   -6.6752   -8.2085 C   0  0  0  0  0  0  0  0  0  0  0  0
   63.7780   -7.4676   -8.9671 N   0  0  0  0  0  0  0  0  0  0  0  0
   64.3169   -6.1951   -8.7228 C   0  0  0  0  0  0  0  0  0  0  0  0
   65.7937   -6.3278   -8.3402 C   0  0  0  0  0  0  0  0  0  0  0  0
   65.9078   -7.4164   -7.3892 N   0  0  0  0  0  0  0  0  0  0  0  0
   65.3682   -7.1272   -6.0990 C   0  0  0  0  0  0  0  0  0  0  0  0
   65.5529   -8.6854   -7.9376 C   0  0  0  0  0  0  0  0  0  0  0  0
   64.7642   -8.4668   -9.2270 C   0  0  0  0  0  0  0  0  0  0  0  0
   56.9410   -3.9265  -12.7171 C   0  0  0  0  0  0  0  0  0  0  0  0
   56.1736   -4.2914  -11.5928 O   0  0  0  0  0  0  0  0  0  0  0  0
 43 44  1  0  0  0
 44 24  1  0  0  0
 24 25  2  0  0  0
 25 26  1  0  0  0
 26 27  2  0  0  0
 27 28  1  0  0  0
 28 29  2  0  0  0
 29  1  1  0  0  0
  1  3  1  0  0  0
  3  4  2  0  0  0
  4  5  1  0  0  0
  5  6  2  0  0  0
  6  7  1  0  0  0
  6  8  1  0  0  0
  8 10  1  0  0  0
 10 12  1  0  0  0
 12 13  2  0  0  0
 13 14  1  0  0  0
 14 15  2  0  0  0
 15 16  1  0  0  0
 16 17  2  0  0  0
 17 18  1  0  0  0
 18 19  2  0  0  0
 18 20  2  0  0  0
 18 21  1  0  0  0
 21 22  1  0  0  0
 21 23  1  0  0  0
  8  9  2  0  0  0
 26 30  1  0  0  0
 30 31  1  0  0  0
 31 32  1  0  0  0
 32 33  1  0  0  0
 33 34  1  0  0  0
 34 35  1  0  0  0
 33 36  1  0  0  0
 36 37  1  0  0  0
 37 38  1  0  0  0
 38 39  1  0  0  0
 39 40  1  0  0  0
 39 41  1  0  0  0
 41 42  1  0  0  0
 29 24  1  0  0  0
  9  3  1  0  0  0
 35 30  1  0  0  0
 42 36  1  0  0  0
 17 12  1  0  0  0
  1  2  1  0  0  0
 10 11  1  0  0  0
M  END
> <minimizedAffinity>
-8.00919

> <CNNscore>
0.5147708654

> <CNNaffinity>
7.7299895287

> <CNN_VS>
3.9791734219

> <CNNaffinity_variance>
0.0744245499

$$$$
[H]c1c(C#CC([H])([H])N([H])C(=O)C([H])([H])N2C([H])([H])C([H])([H])N([H])C([H])([H])C2([H])[H])c([H])c2c(nc([H])c3nc(C([H])([H])[H])n(C([H])([H])C([H])([H])[H])c32)c1[H]


 31 34  0  0  0  0  0  0  0  0999 V2000
   52.8747   -4.1669   -7.8132 N   0  0  0  0  0  0  0  0  0  0  0  0
   52.9297   -3.3546   -8.9260 C   0  0  0  0  0  0  0  0  0  0  0  0
   53.9955   -3.3477   -9.9736 C   0  0  0  0  0  0  0  0  0  0  0  0
   51.8879   -2.5220   -8.9451 N   0  0  0  0  0  0  0  0  0  0  0  0
   51.1483   -2.7666   -7.8666 C   0  0  0  0  0  0  0  0  0  0  0  0
   49.9584   -2.2174   -7.4053 C   0  0  0  0  0  0  0  0  0  0  0  0
   49.4328   -2.6931   -6.2820 N   0  0  0  0  0  0  0  0  0  0  0  0
   50.0033   -3.6838   -5.5649 C   0  0  0  0  0  0  0  0  0  0  0  0
   49.4132   -4.0887   -4.3903 C   0  0  0  0  0  0  0  0  0  0  0  0
   50.0116   -5.0402   -3.6637 C   0  0  0  0  0  0  0  0  0  0  0  0
   51.2158   -5.6181   -4.0833 C   0  0  0  0  0  0  0  0  0  0  0  0
   51.8267   -5.2233   -5.2800 C   0  0  0  0  0  0  0  0  0  0  0  0
   51.1921   -4.2483   -6.0015 C   0  0  0  0  0  0  0  0  0  0  0  0
   51.7641   -3.7850   -7.1651 C   0  0  0  0  0  0  0  0  0  0  0  0
   55.0773   -4.7463   -6.8552 C   0  0  0  0  0  0  0  0  0  0  0  0
   53.8540   -5.1746   -7.6314 C   0  0  0  0  0  0  0  0  0  0  0  0
   51.8752   -6.5161   -3.2229 C   0  0  0  0  0  0  0  0  0  0  0  0
   52.5276   -7.1921   -2.5342 C   0  0  0  0  0  0  0  0  0  0  0  0
   53.4081   -7.8669   -1.7989 C   0  0  0  0  0  0  0  0  0  0  0  0
   54.3021   -8.5465   -1.0585 N   0  0  0  0  0  0  0  0  0  0  0  0
   55.5871   -7.9554   -0.7569 C   0  0  0  0  0  0  0  0  0  0  0  0
   55.7226   -6.7601   -1.2377 O   0  0  0  0  0  0  0  0  0  0  0  0
   54.1866   -9.5292   -0.6454 H   0  0  0  0  0  0  0  0  0  0  0  0
   56.6897   -8.5014   -0.0295 C   0  0  0  0  0  0  0  0  0  0  0  0
   57.9431   -8.4314   -0.6757 N   0  0  0  0  0  0  0  0  0  0  0  0
   58.7990   -7.3333   -0.4223 C   0  0  0  0  0  0  0  0  0  0  0  0
   60.0632   -7.4645   -1.3077 C   0  0  0  0  0  0  0  0  0  0  0  0
   59.5949   -7.2909   -2.6474 N   0  0  0  0  0  0  0  0  0  0  0  0
   58.4797   -8.1097   -3.0259 C   0  0  0  0  0  0  0  0  0  0  0  0
   57.9984   -9.0496   -1.9414 C   0  0  0  0  0  0  0  0  0  0  0  0
   59.4363   -6.2612   -2.8022 H   0  0  0  0  0  0  0  0  0  0  0  0
 15 16  1  0  0  0
 16  1  1  0  0  0
  1  2  1  0  0  0
  2  3  1  0  0  0
  2  4  2  0  0  0
  4  5  1  0  0  0
  5  6  2  0  0  0
  6  7  1  0  0  0
  7  8  2  0  0  0
  8  9  1  0  0  0
  9 10  2  0  0  0
 10 11  1  0  0  0
 11 12  2  0  0  0
 12 13  1  0  0  0
 13 14  2  0  0  0
 11 17  1  0  0  0
 17 18  3  0  0  0
 18 19  1  0  0  0
 19 20  1  0  0  0
 20 21  1  0  0  0
 21 22  2  0  0  0
 21 24  1  0  0  0
 24 25  1  0  0  0
 25 26  1  0  0  0
 26 27  1  0  0  0
 27 28  1  0  0  0
 28 29  1  0  0  0
 29 30  1  0  0  0
 14  1  1  0  0  0
 30 25  1  0  0  0
 14  5  1  0  0  0
 13  8  1  0  0  0
 20 23  1  0  0  0
 28 31  1  0  0  0
M  END
> <minimizedAffinity>
-8.51715

> <CNNscore>
0.5721541047

> <CNNaffinity>
6.7216186523

> <CNN_VS>
3.8458015919

> <CNNaffinity_variance>
0.2503842413

$$$$
[H]c1c(C#CC([H])([H])N([H])C(=O)C([H])([H])N2C([H])([H])C([H])([H])N([H])C([H])([H])C2([H])[H])c([H])c2c(nc([H])c3nc(C([H])([H])[H])n(C([H])([H])C([H])([H])[H])c32)c1[H]


 31 34  0  0  0  0  0  0  0  0999 V2000
   54.2874   -5.5019   -5.9217 N   0  0  0  0  0  0  0  0  0  0  0  0
   53.0081   -5.4517   -5.4096 C   0  0  0  0  0  0  0  0  0  0  0  0
   52.5567   -5.9740   -4.0842 C   0  0  0  0  0  0  0  0  0  0  0  0
   52.1797   -4.8802   -6.2849 N   0  0  0  0  0  0  0  0  0  0  0  0
   52.8856   -4.5548   -7.3647 C   0  0  0  0  0  0  0  0  0  0  0  0
   52.5381   -3.9253   -8.5535 C   0  0  0  0  0  0  0  0  0  0  0  0
   53.4862   -3.7092   -9.4583 N   0  0  0  0  0  0  0  0  0  0  0  0
   54.7722   -4.0764   -9.2782 C   0  0  0  0  0  0  0  0  0  0  0  0
   55.6824   -3.8516  -10.2846 C   0  0  0  0  0  0  0  0  0  0  0  0
   56.9453   -4.2610  -10.1138 C   0  0  0  0  0  0  0  0  0  0  0  0
   57.3414   -4.9068   -8.9365 C   0  0  0  0  0  0  0  0  0  0  0  0
   56.4298   -5.1373   -7.8987 C   0  0  0  0  0  0  0  0  0  0  0  0
   55.1459   -4.7082   -8.1019 C   0  0  0  0  0  0  0  0  0  0  0  0
   54.1916   -4.9441   -7.1378 C   0  0  0  0  0  0  0  0  0  0  0  0
   55.5196   -7.5122   -5.1830 C   0  0  0  0  0  0  0  0  0  0  0  0
   55.3420   -6.0129   -5.1253 C   0  0  0  0  0  0  0  0  0  0  0  0
   58.6428   -5.4375   -8.8569 C   0  0  0  0  0  0  0  0  0  0  0  0
   59.6856   -5.9556   -8.8860 C   0  0  0  0  0  0  0  0  0  0  0  0
   60.8091   -6.6522   -9.0412 C   0  0  0  0  0  0  0  0  0  0  0  0
   61.9440   -7.3555   -9.2035 N   0  0  0  0  0  0  0  0  0  0  0  0
   63.2202   -6.7453   -8.9025 C   0  0  0  0  0  0  0  0  0  0  0  0
   63.1123   -5.5332   -8.4581 O   0  0  0  0  0  0  0  0  0  0  0  0
   62.0355   -8.3642   -9.5555 H   0  0  0  0  0  0  0  0  0  0  0  0
   64.5378   -7.2838   -9.0334 C   0  0  0  0  0  0  0  0  0  0  0  0
   64.9402   -7.6022  -10.3488 N   0  0  0  0  0  0  0  0  0  0  0  0
   64.7629   -6.6522  -11.3825 C   0  0  0  0  0  0  0  0  0  0  0  0
   65.2140   -7.2783  -12.7257 C   0  0  0  0  0  0  0  0  0  0  0  0
   64.2658   -8.3165  -12.9855 N   0  0  0  0  0  0  0  0  0  0  0  0
   64.0451   -9.2389  -11.9094 C   0  0  0  0  0  0  0  0  0  0  0  0
   64.8819   -8.9721  -10.6766 C   0  0  0  0  0  0  0  0  0  0  0  0
   63.3843   -7.8652  -13.3441 H   0  0  0  0  0  0  0  0  0  0  0  0
 15 16  1  0  0  0
 16  1  1  0  0  0
  1  2  1  0  0  0
  2  3  1  0  0  0
  2  4  2  0  0  0
  4  5  1  0  0  0
  5  6  2  0  0  0
  6  7  1  0  0  0
  7  8  2  0  0  0
  8  9  1  0  0  0
  9 10  2  0  0  0
 10 11  1  0  0  0
 11 12  2  0  0  0
 12 13  1  0  0  0
 13 14  2  0  0  0
 11 17  1  0  0  0
 17 18  3  0  0  0
 18 19  1  0  0  0
 19 20  1  0  0  0
 20 21  1  0  0  0
 21 22  2  0  0  0
 21 24  1  0  0  0
 24 25  1  0  0  0
 25 26  1  0  0  0
 26 27  1  0  0  0
 27 28  1  0  0  0
 28 29  1  0  0  0
 29 30  1  0  0  0
 14  1  1  0  0  0
 30 25  1  0  0  0
 14  5  1  0  0  0
 13  8  1  0  0  0
 20 23  1  0  0  0
 28 31  1  0  0  0
M  END
> <minimizedAffinity>
-7.39837

> <CNNscore>
0.5717822313

> <CNNaffinity>
6.3598971367

> <CNN_VS>
3.6364762783

> <CNNaffinity_variance>
0.3813067973

$$$$
[H]c1c(C#CC([H])([H])N([H])C(=O)C([H])([H])N2C([H])([H])C([H])([H])N([H])C([H])([H])C2([H])[H])c([H])c2c(nc([H])c3nc(C([H])([H])[H])n(C([H])([H])C([H])([H])[H])c32)c1[H]


 31 34  0  0  0  0  0  0  0  0999 V2000
   54.1535   -5.3336   -6.3823 N   0  0  0  0  0  0  0  0  0  0  0  0
   52.8758   -5.2294   -5.8744 C   0  0  0  0  0  0  0  0  0  0  0  0
   52.3861   -5.7754   -4.5724 C   0  0  0  0  0  0  0  0  0  0  0  0
   52.0875   -4.5776   -6.7305 N   0  0  0  0  0  0  0  0  0  0  0  0
   52.8182   -4.2522   -7.7936 C   0  0  0  0  0  0  0  0  0  0  0  0
   52.5156   -3.5582   -8.9586 C   0  0  0  0  0  0  0  0  0  0  0  0
   53.4806   -3.3626   -9.8501 N   0  0  0  0  0  0  0  0  0  0  0  0
   54.7421   -3.8102   -9.6787 C   0  0  0  0  0  0  0  0  0  0  0  0
   55.6705   -3.5997  -10.6714 C   0  0  0  0  0  0  0  0  0  0  0  0
   56.9065   -4.0877  -10.5111 C   0  0  0  0  0  0  0  0  0  0  0  0
   57.2568   -4.8003   -9.3580 C   0  0  0  0  0  0  0  0  0  0  0  0
   56.3265   -5.0176   -8.3340 C   0  0  0  0  0  0  0  0  0  0  0  0
   55.0709   -4.5074   -8.5261 C   0  0  0  0  0  0  0  0  0  0  0  0
   54.0981   -4.7247   -7.5762 C   0  0  0  0  0  0  0  0  0  0  0  0
   55.2428   -7.4416   -5.6929 C   0  0  0  0  0  0  0  0  0  0  0  0
   55.1715   -5.9352   -5.6018 C   0  0  0  0  0  0  0  0  0  0  0  0
   58.5249   -5.4080   -9.2933 C   0  0  0  0  0  0  0  0  0  0  0  0
   59.5146   -6.0140   -9.1925 C   0  0  0  0  0  0  0  0  0  0  0  0
   60.5477   -6.8322   -9.0062 C   0  0  0  0  0  0  0  0  0  0  0  0
   61.5951   -7.6547   -8.8183 N   0  0  0  0  0  0  0  0  0  0  0  0
   62.0469   -7.9527   -7.4771 C   0  0  0  0  0  0  0  0  0  0  0  0
   61.3298   -7.3834   -6.5606 O   0  0  0  0  0  0  0  0  0  0  0  0
   62.1803   -8.1404   -9.5742 H   0  0  0  0  0  0  0  0  0  0  0  0
   63.1459   -8.7590   -7.0471 C   0  0  0  0  0  0  0  0  0  0  0  0
   62.8030   -9.9921   -6.4509 N   0  0  0  0  0  0  0  0  0  0  0  0
   61.8332  -10.8191   -7.0656 C   0  0  0  0  0  0  0  0  0  0  0  0
   61.5932  -12.0631   -6.1742 C   0  0  0  0  0  0  0  0  0  0  0  0
   60.9752  -11.5543   -4.9895 N   0  0  0  0  0  0  0  0  0  0  0  0
   61.6499  -10.4560   -4.3604 C   0  0  0  0  0  0  0  0  0  0  0  0
   62.9307  -10.0335   -5.0475 C   0  0  0  0  0  0  0  0  0  0  0  0
   59.9644  -11.3592   -5.2120 H   0  0  0  0  0  0  0  0  0  0  0  0
 15 16  1  0  0  0
 16  1  1  0  0  0
  1  2  1  0  0  0
  2  3  1  0  0  0
  2  4  2  0  0  0
  4  5  1  0  0  0
  5  6  2  0  0  0
  6  7  1  0  0  0
  7  8  2  0  0  0
  8  9  1  0  0  0
  9 10  2  0  0  0
 10 11  1  0  0  0
 11 12  2  0  0  0
 12 13  1  0  0  0
 13 14  2  0  0  0
 11 17  1  0  0  0
 17 18  3  0  0  0
 18 19  1  0  0  0
 19 20  1  0  0  0
 20 21  1  0  0  0
 21 22  2  0  0  0
 21 24  1  0  0  0
 24 25  1  0  0  0
 25 26  1  0  0  0
 26 27  1  0  0  0
 27 28  1  0  0  0
 28 29  1  0  0  0
 29 30  1  0  0  0
 14  1  1  0  0  0
 30 25  1  0  0  0
 14  5  1  0  0  0
 13  8  1  0  0  0
 20 23  1  0  0  0
 28 31  1  0  0  0
M  END
> <minimizedAffinity>
-7.64317

> <CNNscore>
0.5226687193

> <CNNaffinity>
6.3508667946

> <CNN_VS>
3.3193993568

> <CNNaffinity_variance>
0.1214202791

$$$$
[H]c1c(C#CC([H])([H])N([H])C(=O)C([H])([H])N2C([H])([H])C([H])([H])N([H])C([H])([H])C2([H])[H])c([H])c2c(nc([H])c3nc(C([H])([H])[H])n(C([H])([H])C([H])([H])[H])c32)c1[H]


 31 34  0  0  0  0  0  0  0  0999 V2000
   53.0335   -4.4199   -7.5312 N   0  0  0  0  0  0  0  0  0  0  0  0
   52.8603   -3.6079   -8.6321 C   0  0  0  0  0  0  0  0  0  0  0  0
   53.8120   -3.4345   -9.7713 C   0  0  0  0  0  0  0  0  0  0  0  0
   51.7049   -2.9472   -8.5447 N   0  0  0  0  0  0  0  0  0  0  0  0
   51.1138   -3.3047   -7.4077 C   0  0  0  0  0  0  0  0  0  0  0  0
   49.9004   -2.9475   -6.8328 C   0  0  0  0  0  0  0  0  0  0  0  0
   49.5596   -3.5001   -5.6741 N   0  0  0  0  0  0  0  0  0  0  0  0
   50.3395   -4.3907   -5.0263 C   0  0  0  0  0  0  0  0  0  0  0  0
   49.9289   -4.8834   -3.8096 C   0  0  0  0  0  0  0  0  0  0  0  0
   50.7311   -5.7311   -3.1543 C   0  0  0  0  0  0  0  0  0  0  0  0
   51.9667   -6.1145   -3.6893 C   0  0  0  0  0  0  0  0  0  0  0  0
   52.3974   -5.6285   -4.9301 C   0  0  0  0  0  0  0  0  0  0  0  0
   51.5564   -4.7634   -5.5767 C   0  0  0  0  0  0  0  0  0  0  0  0
   51.9412   -4.2158   -6.7800 C   0  0  0  0  0  0  0  0  0  0  0  0
   55.3850   -4.6428   -6.8059 C   0  0  0  0  0  0  0  0  0  0  0  0
   54.1693   -5.2634   -7.4537 C   0  0  0  0  0  0  0  0  0  0  0  0
   52.8329   -6.8999   -2.9054 C   0  0  0  0  0  0  0  0  0  0  0  0
   53.6323   -7.4520   -2.2627 C   0  0  0  0  0  0  0  0  0  0  0  0
   54.6473   -7.9438   -1.5561 C   0  0  0  0  0  0  0  0  0  0  0  0
   55.6741   -8.4357   -0.8401 N   0  0  0  0  0  0  0  0  0  0  0  0
   56.9408   -8.7028   -1.4849 C   0  0  0  0  0  0  0  0  0  0  0  0
   56.9473   -8.3909   -2.7423 O   0  0  0  0  0  0  0  0  0  0  0  0
   55.6769   -8.6795    0.2041 H   0  0  0  0  0  0  0  0  0  0  0  0
   58.1409   -9.2526   -0.9367 C   0  0  0  0  0  0  0  0  0  0  0  0
   58.8559  -10.1264   -1.7846 N   0  0  0  0  0  0  0  0  0  0  0  0
   59.2312  -11.4063   -1.3118 C   0  0  0  0  0  0  0  0  0  0  0  0
   60.0619  -12.1240   -2.4047 C   0  0  0  0  0  0  0  0  0  0  0  0
   61.2752  -11.3733   -2.4982 N   0  0  0  0  0  0  0  0  0  0  0  0
   61.1176   -9.9572   -2.6628 C   0  0  0  0  0  0  0  0  0  0  0  0
   59.6786   -9.4935   -2.7385 C   0  0  0  0  0  0  0  0  0  0  0  0
   61.8826  -11.6397   -1.6800 H   0  0  0  0  0  0  0  0  0  0  0  0
 15 16  1  0  0  0
 16  1  1  0  0  0
  1  2  1  0  0  0
  2  3  1  0  0  0
  2  4  2  0  0  0
  4  5  1  0  0  0
  5  6  2  0  0  0
  6  7  1  0  0  0
  7  8  2  0  0  0
  8  9  1  0  0  0
  9 10  2  0  0  0
 10 11  1  0  0  0
 11 12  2  0  0  0
 12 13  1  0  0  0
 13 14  2  0  0  0
 11 17  1  0  0  0
 17 18  3  0  0  0
 18 19  1  0  0  0
 19 20  1  0  0  0
 20 21  1  0  0  0
 21 22  2  0  0  0
 21 24  1  0  0  0
 24 25  1  0  0  0
 25 26  1  0  0  0
 26 27  1  0  0  0
 27 28  1  0  0  0
 28 29  1  0  0  0
 29 30  1  0  0  0
 14  1  1  0  0  0
 30 25  1  0  0  0
 14  5  1  0  0  0
 13  8  1  0  0  0
 20 23  1  0  0  0
 28 31  1  0  0  0
M  END
> <minimizedAffinity>
-8.06522

> <CNNscore>
0.4603847265

> <CNNaffinity>
6.3690857887

> <CNN_VS>
2.9322297573

> <CNNaffinity_variance>
0.3735567331

$$$$
[H]c1c(C#CC([H])([H])N([H])C(=O)C([H])([H])N2C([H])([H])C([H])([H])N([H])C([H])([H])C2([H])[H])c([H])c2c(nc([H])c3nc(C([H])([H])[H])n(C([H])([H])C([H])([H])[H])c32)c1[H]


 31 34  0  0  0  0  0  0  0  0999 V2000
   64.6791   -7.7267  -12.8824 N   0  0  0  0  0  0  0  0  0  0  0  0
   65.2906   -7.1315  -13.9655 C   0  0  0  0  0  0  0  0  0  0  0  0
   65.7025   -5.6997  -14.0818 C   0  0  0  0  0  0  0  0  0  0  0  0
   65.4556   -8.0164  -14.9497 N   0  0  0  0  0  0  0  0  0  0  0  0
   64.9631   -9.1822  -14.5392 C   0  0  0  0  0  0  0  0  0  0  0  0
   64.8934  -10.4317  -15.1427 C   0  0  0  0  0  0  0  0  0  0  0  0
   64.3545  -11.4367  -14.4617 N   0  0  0  0  0  0  0  0  0  0  0  0
   63.8676  -11.2998  -13.2105 C   0  0  0  0  0  0  0  0  0  0  0  0
   63.2885  -12.3836  -12.5926 C   0  0  0  0  0  0  0  0  0  0  0  0
   62.7679  -12.2253  -11.3698 C   0  0  0  0  0  0  0  0  0  0  0  0
   62.8071  -10.9837  -10.7241 C   0  0  0  0  0  0  0  0  0  0  0  0
   63.3993   -9.8714  -11.3353 C   0  0  0  0  0  0  0  0  0  0  0  0
   63.9228  -10.0634  -12.5854 C   0  0  0  0  0  0  0  0  0  0  0  0
   64.4797   -8.9989  -13.2581 C   0  0  0  0  0  0  0  0  0  0  0  0
   63.1593   -6.2261  -11.6399 C   0  0  0  0  0  0  0  0  0  0  0  0
   64.4681   -6.9787  -11.6977 C   0  0  0  0  0  0  0  0  0  0  0  0
   62.1301  -10.8325   -9.4992 C   0  0  0  0  0  0  0  0  0  0  0  0
   61.6663  -10.6307   -8.4499 C   0  0  0  0  0  0  0  0  0  0  0  0
   61.2802  -10.3075   -7.2179 C   0  0  0  0  0  0  0  0  0  0  0  0
   60.8929   -9.9851   -5.9708 N   0  0  0  0  0  0  0  0  0  0  0  0
   60.9033  -10.9891   -4.9300 C   0  0  0  0  0  0  0  0  0  0  0  0
   61.3378  -12.1397   -5.3373 O   0  0  0  0  0  0  0  0  0  0  0  0
   60.5484   -9.0298   -5.6268 H   0  0  0  0  0  0  0  0  0  0  0  0
   60.5046  -10.8828   -3.5615 C   0  0  0  0  0  0  0  0  0  0  0  0
   60.5609   -9.5854   -3.0074 N   0  0  0  0  0  0  0  0  0  0  0  0
   59.5197   -8.6655   -3.2763 C   0  0  0  0  0  0  0  0  0  0  0  0
   59.8637   -7.3072   -2.6158 C   0  0  0  0  0  0  0  0  0  0  0  0
   61.0024   -6.8258   -3.3339 N   0  0  0  0  0  0  0  0  0  0  0  0
   62.0910   -7.7507   -3.4633 C   0  0  0  0  0  0  0  0  0  0  0  0
   61.8604   -9.0853   -2.7872 C   0  0  0  0  0  0  0  0  0  0  0  0
   60.6635   -6.4391   -4.2532 H   0  0  0  0  0  0  0  0  0  0  0  0
 15 16  1  0  0  0
 16  1  1  0  0  0
  1  2  1  0  0  0
  2  3  1  0  0  0
  2  4  2  0  0  0
  4  5  1  0  0  0
  5  6  2  0  0  0
  6  7  1  0  0  0
  7  8  2  0  0  0
  8  9  1  0  0  0
  9 10  2  0  0  0
 10 11  1  0  0  0
 11 12  2  0  0  0
 12 13  1  0  0  0
 13 14  2  0  0  0
 11 17  1  0  0  0
 17 18  3  0  0  0
 18 19  1  0  0  0
 19 20  1  0  0  0
 20 21  1  0  0  0
 21 22  2  0  0  0
 21 24  1  0  0  0
 24 25  1  0  0  0
 25 26  1  0  0  0
 26 27  1  0  0  0
 27 28  1  0  0  0
 28 29  1  0  0  0
 29 30  1  0  0  0
 14  1  1  0  0  0
 30 25  1  0  0  0
 14  5  1  0  0  0
 13  8  1  0  0  0
 20 23  1  0  0  0
 28 31  1  0  0  0
M  END
> <minimizedAffinity>
-3.13786

> <CNNscore>
0.4128742516

> <CNNaffinity>
4.5162148476

> <CNN_VS>
1.8646287918

> <CNNaffinity_variance>
0.1530243754

$$$$
[H]c1c(C#CC([H])([H])N([H])C(=O)C([H])([H])N2C([H])([H])C([H])([H])N([H])C([H])([H])C2([H])[H])c([H])c2c(nc([H])c3nc(C([H])([H])[H])n(C([H])([H])C([H])([H])[H])c32)c1[H]


 31 34  0  0  0  0  0  0  0  0999 V2000
   54.3172   -5.5567   -5.9321 N   0  0  0  0  0  0  0  0  0  0  0  0
   53.0365   -5.5304   -5.4217 C   0  0  0  0  0  0  0  0  0  0  0  0
   52.5937   -6.0583   -4.0956 C   0  0  0  0  0  0  0  0  0  0  0  0
   52.1981   -4.9774   -6.2994 N   0  0  0  0  0  0  0  0  0  0  0  0
   52.8989   -4.6408   -7.3791 C   0  0  0  0  0  0  0  0  0  0  0  0
   52.5407   -4.0211   -8.5698 C   0  0  0  0  0  0  0  0  0  0  0  0
   53.4855   -3.7887   -9.4740 N   0  0  0  0  0  0  0  0  0  0  0  0
   54.7782   -4.1301   -9.2915 C   0  0  0  0  0  0  0  0  0  0  0  0
   55.6852   -3.8899  -10.2972 C   0  0  0  0  0  0  0  0  0  0  0  0
   56.9555   -4.2740  -10.1239 C   0  0  0  0  0  0  0  0  0  0  0  0
   57.3627   -4.9092   -8.9446 C   0  0  0  0  0  0  0  0  0  0  0  0
   56.4545   -5.1550   -7.9073 C   0  0  0  0  0  0  0  0  0  0  0  0
   55.1628   -4.7516   -8.1131 C   0  0  0  0  0  0  0  0  0  0  0  0
   54.2120   -5.0039   -7.1497 C   0  0  0  0  0  0  0  0  0  0  0  0
   55.9728   -5.0413   -4.1719 C   0  0  0  0  0  0  0  0  0  0  0  0
   55.3806   -6.0451   -5.1332 C   0  0  0  0  0  0  0  0  0  0  0  0
   58.6742   -5.4140   -8.8621 C   0  0  0  0  0  0  0  0  0  0  0  0
   59.7429   -5.8746   -8.9136 C   0  0  0  0  0  0  0  0  0  0  0  0
   60.9188   -6.4589   -9.1304 C   0  0  0  0  0  0  0  0  0  0  0  0
   62.1057   -7.0538   -9.3466 N   0  0  0  0  0  0  0  0  0  0  0  0
   62.1774   -8.4916   -9.4852 C   0  0  0  0  0  0  0  0  0  0  0  0
   61.0196   -9.0682   -9.4103 O   0  0  0  0  0  0  0  0  0  0  0  0
   63.0632   -6.5779   -9.4254 H   0  0  0  0  0  0  0  0  0  0  0  0
   63.3189   -9.3295   -9.6801 C   0  0  0  0  0  0  0  0  0  0  0  0
   63.4116   -9.9518  -10.9440 N   0  0  0  0  0  0  0  0  0  0  0  0
   63.2673  -11.3561  -11.0432 C   0  0  0  0  0  0  0  0  0  0  0  0
   63.4858  -11.7827  -12.5162 C   0  0  0  0  0  0  0  0  0  0  0  0
   64.8658  -11.5147  -12.7771 N   0  0  0  0  0  0  0  0  0  0  0  0
   65.3174  -10.1969  -12.4350 C   0  0  0  0  0  0  0  0  0  0  0  0
   64.2399   -9.2931  -11.8753 C   0  0  0  0  0  0  0  0  0  0  0  0
   65.4325  -12.2847  -12.3352 H   0  0  0  0  0  0  0  0  0  0  0  0
 15 16  1  0  0  0
 16  1  1  0  0  0
  1  2  1  0  0  0
  2  3  1  0  0  0
  2  4  2  0  0  0
  4  5  1  0  0  0
  5  6  2  0  0  0
  6  7  1  0  0  0
  7  8  2  0  0  0
  8  9  1  0  0  0
  9 10  2  0  0  0
 10 11  1  0  0  0
 11 12  2  0  0  0
 12 13  1  0  0  0
 13 14  2  0  0  0
 11 17  1  0  0  0
 17 18  3  0  0  0
 18 19  1  0  0  0
 19 20  1  0  0  0
 20 21  1  0  0  0
 21 22  2  0  0  0
 21 24  1  0  0  0
 24 25  1  0  0  0
 25 26  1  0  0  0
 26 27  1  0  0  0
 27 28  1  0  0  0
 28 29  1  0  0  0
 29 30  1  0  0  0
 14  1  1  0  0  0
 30 25  1  0  0  0
 14  5  1  0  0  0
 13  8  1  0  0  0
 20 23  1  0  0  0
 28 31  1  0  0  0
M  END
> <minimizedAffinity>
-7.42302

> <CNNscore>
0.4033308029

> <CNNaffinity>
6.0714254379

> <CNN_VS>
2.4487929344

> <CNNaffinity_variance>
0.4379126430

$$$$
[H]c1c(C#CC([H])([H])N([H])C(=O)C([H])([H])N2C([H])([H])C([H])([H])N([H])C([H])([H])C2([H])[H])c([H])c2c(nc([H])c3nc(C([H])([H])[H])n(C([H])([H])C([H])([H])[H])c32)c1[H]


 31 34  0  0  0  0  0  0  0  0999 V2000
   61.1733   -3.8847  -15.0741 N   0  0  0  0  0  0  0  0  0  0  0  0
   60.7338   -3.4069  -16.2906 C   0  0  0  0  0  0  0  0  0  0  0  0
   59.7983   -2.2632  -16.5145 C   0  0  0  0  0  0  0  0  0  0  0  0
   61.2437   -4.1331  -17.2864 N   0  0  0  0  0  0  0  0  0  0  0  0
   62.0084   -5.0815  -16.7517 C   0  0  0  0  0  0  0  0  0  0  0  0
   62.7845   -6.0855  -17.3174 C   0  0  0  0  0  0  0  0  0  0  0  0
   63.4734   -6.8858  -16.5117 N   0  0  0  0  0  0  0  0  0  0  0  0
   63.4518   -6.7714  -15.1672 C   0  0  0  0  0  0  0  0  0  0  0  0
   64.1629   -7.6687  -14.4050 C   0  0  0  0  0  0  0  0  0  0  0  0
   64.0979   -7.5744  -13.0714 C   0  0  0  0  0  0  0  0  0  0  0  0
   63.3232   -6.5845  -12.4551 C   0  0  0  0  0  0  0  0  0  0  0  0
   62.5988   -5.6581  -13.2155 C   0  0  0  0  0  0  0  0  0  0  0  0
   62.6841   -5.7794  -14.5763 C   0  0  0  0  0  0  0  0  0  0  0  0
   61.9605   -4.9269  -15.3797 C   0  0  0  0  0  0  0  0  0  0  0  0
   59.5583   -3.7456  -13.2092 C   0  0  0  0  0  0  0  0  0  0  0  0
   60.8025   -3.2146  -13.8820 C   0  0  0  0  0  0  0  0  0  0  0  0
   63.1789   -6.6075  -11.0550 C   0  0  0  0  0  0  0  0  0  0  0  0
   63.1794   -6.5817   -9.8904 C   0  0  0  0  0  0  0  0  0  0  0  0
   63.3462   -6.5011   -8.5725 C   0  0  0  0  0  0  0  0  0  0  0  0
   63.5190   -6.4231   -7.2409 N   0  0  0  0  0  0  0  0  0  0  0  0
   62.7492   -7.2759   -6.3624 C   0  0  0  0  0  0  0  0  0  0  0  0
   61.9599   -8.0821   -6.9992 O   0  0  0  0  0  0  0  0  0  0  0  0
   64.1832   -5.7685   -6.7117 H   0  0  0  0  0  0  0  0  0  0  0  0
   62.7413   -7.3380   -4.9344 C   0  0  0  0  0  0  0  0  0  0  0  0
   61.8670   -8.2917   -4.3689 N   0  0  0  0  0  0  0  0  0  0  0  0
   60.6554   -7.8634   -3.7764 C   0  0  0  0  0  0  0  0  0  0  0  0
   59.9281   -9.0904   -3.1722 C   0  0  0  0  0  0  0  0  0  0  0  0
   60.7601   -9.5166   -2.0904 N   0  0  0  0  0  0  0  0  0  0  0  0
   62.1453   -9.7069   -2.4105 C   0  0  0  0  0  0  0  0  0  0  0  0
   62.4922   -9.4487   -3.8611 C   0  0  0  0  0  0  0  0  0  0  0  0
   60.5983   -8.8609   -1.2821 H   0  0  0  0  0  0  0  0  0  0  0  0
 15 16  1  0  0  0
 16  1  1  0  0  0
  1  2  1  0  0  0
  2  3  1  0  0  0
  2  4  2  0  0  0
  4  5  1  0  0  0
  5  6  2  0  0  0
  6  7  1  0  0  0
  7  8  2  0  0  0
  8  9  1  0  0  0
  9 10  2  0  0  0
 10 11  1  0  0  0
 11 12  2  0  0  0
 12 13  1  0  0  0
 13 14  2  0  0  0
 11 17  1  0  0  0
 17 18  3  0  0  0
 18 19  1  0  0  0
 19 20  1  0  0  0
 20 21  1  0  0  0
 21 22  2  0  0  0
 21 24  1  0  0  0
 24 25  1  0  0  0
 25 26  1  0  0  0
 26 27  1  0  0  0
 27 28  1  0  0  0
 28 29  1  0  0  0
 29 30  1  0  0  0
 14  1  1  0  0  0
 30 25  1  0  0  0
 14  5  1  0  0  0
 13  8  1  0  0  0
 20 23  1  0  0  0
 28 31  1  0  0  0
M  END
> <minimizedAffinity>
-3.00944

> <CNNscore>
0.4033171833

> <CNNaffinity>
4.4562139511

> <CNN_VS>
1.7972676754

> <CNNaffinity_variance>
0.1702376008

$$$$
[H]c1c(C#CC([H])([H])N([H])C(=O)C([H])([H])N2C([H])([H])C([H])([H])N([H])C([H])([H])C2([H])[H])c([H])c2c(nc([H])c3nc(C([H])([H])[H])n(C([H])([H])C([H])([H])[H])c32)c1[H]


 31 34  0  0  0  0  0  0  0  0999 V2000
   64.1012  -11.7716  -14.7094 N   0  0  0  0  0  0  0  0  0  0  0  0
   64.5248  -11.4635  -15.9849 C   0  0  0  0  0  0  0  0  0  0  0  0
   65.6556  -10.5592  -16.3553 C   0  0  0  0  0  0  0  0  0  0  0  0
   63.7575  -12.0737  -16.8892 N   0  0  0  0  0  0  0  0  0  0  0  0
   62.8349  -12.7759  -16.2365 C   0  0  0  0  0  0  0  0  0  0  0  0
   61.8092  -13.6049  -16.6735 C   0  0  0  0  0  0  0  0  0  0  0  0
   61.0463  -14.2036  -15.7658 N   0  0  0  0  0  0  0  0  0  0  0  0
   61.2186  -14.0410  -14.4373 C   0  0  0  0  0  0  0  0  0  0  0  0
   60.3569  -14.6660  -13.5664 C   0  0  0  0  0  0  0  0  0  0  0  0
   60.5087  -14.4614  -12.2525 C   0  0  0  0  0  0  0  0  0  0  0  0
   61.5225  -13.6283  -11.7644 C   0  0  0  0  0  0  0  0  0  0  0  0
   62.4133  -12.9898  -12.6362 C   0  0  0  0  0  0  0  0  0  0  0  0
   62.2335  -13.2175  -13.9739 C   0  0  0  0  0  0  0  0  0  0  0  0
   63.0487  -12.5843  -14.8851 C   0  0  0  0  0  0  0  0  0  0  0  0
   64.3080   -9.9772  -13.0234 C   0  0  0  0  0  0  0  0  0  0  0  0
   64.8214  -11.2790  -13.5931 C   0  0  0  0  0  0  0  0  0  0  0  0
   61.5597  -13.3374  -10.3876 C   0  0  0  0  0  0  0  0  0  0  0  0
   61.5313  -12.9867   -9.2772 C   0  0  0  0  0  0  0  0  0  0  0  0
   61.4276  -12.4388   -8.0687 C   0  0  0  0  0  0  0  0  0  0  0  0
   61.3221  -11.8900   -6.8453 N   0  0  0  0  0  0  0  0  0  0  0  0
   62.4757  -11.2716   -6.2301 C   0  0  0  0  0  0  0  0  0  0  0  0
   63.5281  -11.2937   -6.9855 O   0  0  0  0  0  0  0  0  0  0  0  0
   60.4485  -11.8556   -6.2246 H   0  0  0  0  0  0  0  0  0  0  0  0
   62.6030  -10.6672   -4.9411 C   0  0  0  0  0  0  0  0  0  0  0  0
   62.3432  -11.5131   -3.8409 N   0  0  0  0  0  0  0  0  0  0  0  0
   62.9591  -12.7856   -3.7778 C   0  0  0  0  0  0  0  0  0  0  0  0
   62.4492  -13.5308   -2.5191 C   0  0  0  0  0  0  0  0  0  0  0  0
   61.0650  -13.7815   -2.7744 N   0  0  0  0  0  0  0  0  0  0  0  0
   60.2930  -12.6433   -3.1819 C   0  0  0  0  0  0  0  0  0  0  0  0
   61.0752  -11.3490   -3.2471 C   0  0  0  0  0  0  0  0  0  0  0  0
   61.0026  -14.5958   -3.4396 H   0  0  0  0  0  0  0  0  0  0  0  0
 15 16  1  0  0  0
 16  1  1  0  0  0
  1  2  1  0  0  0
  2  3  1  0  0  0
  2  4  2  0  0  0
  4  5  1  0  0  0
  5  6  2  0  0  0
  6  7  1  0  0  0
  7  8  2  0  0  0
  8  9  1  0  0  0
  9 10  2  0  0  0
 10 11  1  0  0  0
 11 12  2  0  0  0
 12 13  1  0  0  0
 13 14  2  0  0  0
 11 17  1  0  0  0
 17 18  3  0  0  0
 18 19  1  0  0  0
 19 20  1  0  0  0
 20 21  1  0  0  0
 21 22  2  0  0  0
 21 24  1  0  0  0
 24 25  1  0  0  0
 25 26  1  0  0  0
 26 27  1  0  0  0
 27 28  1  0  0  0
 28 29  1  0  0  0
 29 30  1  0  0  0
 14  1  1  0  0  0
 30 25  1  0  0  0
 14  5  1  0  0  0
 13  8  1  0  0  0
 20 23  1  0  0  0
 28 31  1  0  0  0
M  END
> <minimizedAffinity>
-3.13218

> <CNNscore>
0.3955951333

> <CNNaffinity>
4.5645456314

> <CNN_VS>
1.8057119846

> <CNNaffinity_variance>
0.0875200182

$$$$
[H]c1c(C#CC([H])([H])N([H])C(=O)C([H])([H])N2C([H])([H])C([H])([H])N([H])C([H])([H])C2([H])[H])c([H])c2c(nc([H])c3nc(C([H])([H])[H])n(C([H])([H])C([H])([H])[H])c32)c1[H]


 31 34  0  0  0  0  0  0  0  0999 V2000
   56.1506   -4.7749   -8.6752 N   0  0  0  0  0  0  0  0  0  0  0  0
   54.9427   -4.2698   -9.1080 C   0  0  0  0  0  0  0  0  0  0  0  0
   53.7054   -4.0918   -8.2890 C   0  0  0  0  0  0  0  0  0  0  0  0
   55.0033   -3.9696  -10.4061 N   0  0  0  0  0  0  0  0  0  0  0  0
   56.2252   -4.2686  -10.8391 C   0  0  0  0  0  0  0  0  0  0  0  0
   56.8337   -4.1406  -12.0815 C   0  0  0  0  0  0  0  0  0  0  0  0
   58.1033   -4.5100  -12.2079 N   0  0  0  0  0  0  0  0  0  0  0  0
   58.8297   -5.0079  -11.1855 C   0  0  0  0  0  0  0  0  0  0  0  0
   60.1268   -5.4047  -11.4133 C   0  0  0  0  0  0  0  0  0  0  0  0
   60.8234   -5.9395  -10.4033 C   0  0  0  0  0  0  0  0  0  0  0  0
   60.2509   -6.0962   -9.1354 C   0  0  0  0  0  0  0  0  0  0  0  0
   58.9342   -5.6910   -8.8835 C   0  0  0  0  0  0  0  0  0  0  0  0
   58.2465   -5.1481   -9.9353 C   0  0  0  0  0  0  0  0  0  0  0  0
   56.9336   -4.7704   -9.7643 C   0  0  0  0  0  0  0  0  0  0  0  0
   56.4828   -3.9124   -6.3837 C   0  0  0  0  0  0  0  0  0  0  0  0
   56.3258   -5.0980   -7.3069 C   0  0  0  0  0  0  0  0  0  0  0  0
   60.9743   -6.7842   -8.1429 C   0  0  0  0  0  0  0  0  0  0  0  0
   61.4599   -7.3974   -7.2797 C   0  0  0  0  0  0  0  0  0  0  0  0
   61.8520   -8.1386   -6.2462 C   0  0  0  0  0  0  0  0  0  0  0  0
   62.2505   -8.8834   -5.1995 N   0  0  0  0  0  0  0  0  0  0  0  0
   62.7257  -10.2324   -5.4133 C   0  0  0  0  0  0  0  0  0  0  0  0
   62.7409  -10.5744   -6.6627 O   0  0  0  0  0  0  0  0  0  0  0  0
   62.2545   -8.5975   -4.1661 H   0  0  0  0  0  0  0  0  0  0  0  0
   63.1588  -11.2047   -4.4592 C   0  0  0  0  0  0  0  0  0  0  0  0
   64.1861  -10.7878   -3.5848 N   0  0  0  0  0  0  0  0  0  0  0  0
   63.8508  -10.2538   -2.3180 C   0  0  0  0  0  0  0  0  0  0  0  0
   65.1487   -9.8104   -1.5980 C   0  0  0  0  0  0  0  0  0  0  0  0
   65.6389   -8.7089   -2.3665 N   0  0  0  0  0  0  0  0  0  0  0  0
   65.7550   -8.9395   -3.7775 C   0  0  0  0  0  0  0  0  0  0  0  0
   65.3613  -10.3334   -4.2170 C   0  0  0  0  0  0  0  0  0  0  0  0
   65.0612   -7.8630   -2.1216 H   0  0  0  0  0  0  0  0  0  0  0  0
 15 16  1  0  0  0
 16  1  1  0  0  0
  1  2  1  0  0  0
  2  3  1  0  0  0
  2  4  2  0  0  0
  4  5  1  0  0  0
  5  6  2  0  0  0
  6  7  1  0  0  0
  7  8  2  0  0  0
  8  9  1  0  0  0
  9 10  2  0  0  0
 10 11  1  0  0  0
 11 12  2  0  0  0
 12 13  1  0  0  0
 13 14  2  0  0  0
 11 17  1  0  0  0
 17 18  3  0  0  0
 18 19  1  0  0  0
 19 20  1  0  0  0
 20 21  1  0  0  0
 21 22  2  0  0  0
 21 24  1  0  0  0
 24 25  1  0  0  0
 25 26  1  0  0  0
 26 27  1  0  0  0
 27 28  1  0  0  0
 28 29  1  0  0  0
 29 30  1  0  0  0
 14  1  1  0  0  0
 30 25  1  0  0  0
 14  5  1  0  0  0
 13  8  1  0  0  0
 20 23  1  0  0  0
 28 31  1  0  0  0
M  END
> <minimizedAffinity>
-4.36102

> <CNNscore>
0.3501521051

> <CNNaffinity>
5.5506305695

> <CNN_VS>
1.9435650110

> <CNNaffinity_variance>
0.3078550100

$$$$
[H]c1nc(N([H])c2c([H])c([H])c(N3C([H])([H])C([H])([H])N(C([H])([H])[H])C([H])([H])C3([H])[H])c([H])c2[H])nc(N([H])c2c([H])c([H])c(N([H])C(=O)N([H])c3noc(C([H])([H])[H])c3[H])c([H])c2[H])c1Cl


 42 46  0  0  0  0  0  0  0  0999 V2000
   54.2977   -3.5750   -9.3077 C   0  0  0  0  0  0  0  0  0  0  0  0
   53.2717   -2.7389   -9.4578 N   0  0  0  0  0  0  0  0  0  0  0  0
   52.1688   -2.6914   -8.7092 C   0  0  0  0  0  0  0  0  0  0  0  0
   52.0679   -3.5963   -7.6690 C   0  0  0  0  0  0  0  0  0  0  0  0
   50.6467   -3.5640   -6.6735 Cl  0  0  0  0  0  0  0  0  0  0  0  0
   53.1169   -4.5060   -7.4570 C   0  0  0  0  0  0  0  0  0  0  0  0
   54.1610   -4.4578   -8.2652 N   0  0  0  0  0  0  0  0  0  0  0  0
   55.4525   -3.6140  -10.1041 N   0  0  0  0  0  0  0  0  0  0  0  0
   55.4182   -3.0601  -11.0079 H   0  0  0  0  0  0  0  0  0  0  0  0
   59.0477   -5.7671   -9.4487 C   0  0  0  0  0  0  0  0  0  0  0  0
   58.2908   -5.3578   -8.3798 C   0  0  0  0  0  0  0  0  0  0  0  0
   57.1031   -4.6380   -8.5674 C   0  0  0  0  0  0  0  0  0  0  0  0
   56.6283   -4.3022   -9.8133 C   0  0  0  0  0  0  0  0  0  0  0  0
   57.4214   -4.7321  -10.8952 C   0  0  0  0  0  0  0  0  0  0  0  0
   58.5684   -5.4277  -10.6934 C   0  0  0  0  0  0  0  0  0  0  0  0
   63.5644   -8.7744   -8.4265 C   0  0  0  0  0  0  0  0  0  0  0  0
   62.1489   -8.3986   -8.4292 N   0  0  0  0  0  0  0  0  0  0  0  0
   61.7225   -8.3391   -9.8012 C   0  0  0  0  0  0  0  0  0  0  0  0
   60.3444   -7.7920   -9.9846 C   0  0  0  0  0  0  0  0  0  0  0  0
   60.2549   -6.4978   -9.3244 N   0  0  0  0  0  0  0  0  0  0  0  0
   61.4151   -6.0658   -8.5919 C   0  0  0  0  0  0  0  0  0  0  0  0
   61.9082   -7.1990   -7.6877 C   0  0  0  0  0  0  0  0  0  0  0  0
   52.9753   -5.4205   -6.4188 N   0  0  0  0  0  0  0  0  0  0  0  0
   52.0174   -5.9018   -6.3197 H   0  0  0  0  0  0  0  0  0  0  0  0
   53.9879   -5.7433   -5.5053 C   0  0  0  0  0  0  0  0  0  0  0  0
   54.0127   -5.4769   -4.1702 C   0  0  0  0  0  0  0  0  0  0  0  0
   55.0829   -5.8228   -3.4105 C   0  0  0  0  0  0  0  0  0  0  0  0
   56.2280   -6.4694   -3.9200 C   0  0  0  0  0  0  0  0  0  0  0  0
   56.1669   -6.7233   -5.2684 C   0  0  0  0  0  0  0  0  0  0  0  0
   55.1045   -6.3867   -6.0590 C   0  0  0  0  0  0  0  0  0  0  0  0
   57.2612   -6.7970   -3.0421 N   0  0  0  0  0  0  0  0  0  0  0  0
   57.4978   -8.0458   -2.4640 C   0  0  0  0  0  0  0  0  0  0  0  0
   56.7522   -9.0204   -2.7185 O   0  0  0  0  0  0  0  0  0  0  0  0
   58.6198   -8.2347   -1.5527 N   0  0  0  0  0  0  0  0  0  0  0  0
   57.9441   -6.0213   -2.7747 H   0  0  0  0  0  0  0  0  0  0  0  0
   59.2399   -7.4349   -1.3376 H   0  0  0  0  0  0  0  0  0  0  0  0
   58.7954   -9.5256   -1.0078 C   0  0  0  0  0  0  0  0  0  0  0  0
   59.4675  -10.5988   -1.6077 C   0  0  0  0  0  0  0  0  0  0  0  0
   59.4019  -11.6621   -0.7381 C   0  0  0  0  0  0  0  0  0  0  0  0
   59.9724  -13.0079   -0.9453 C   0  0  0  0  0  0  0  0  0  0  0  0
   58.7371  -11.2523    0.3080 O   0  0  0  0  0  0  0  0  0  0  0  0
   58.3732  -10.0095    0.1733 N   0  0  0  0  0  0  0  0  0  0  0  0
 16 17  1  0  0  0
 17 18  1  0  0  0
 18 19  1  0  0  0
 19 20  1  0  0  0
 20 21  1  0  0  0
 21 22  1  0  0  0
 20 10  1  0  0  0
 10 11  2  0  0  0
 11 12  1  0  0  0
 12 13  2  0  0  0
 13  8  1  0  0  0
  8  1  1  0  0  0
  1  2  2  0  0  0
  2  3  1  0  0  0
  3  4  2  0  0  0
  4  5  1  0  0  0
  4  6  1  0  0  0
  6 23  1  0  0  0
 23 25  1  0  0  0
 25 26  2  0  0  0
 26 27  1  0  0  0
 27 28  2  0  0  0
 28 31  1  0  0  0
 31 32  1  0  0  0
 32 33  2  0  0  0
 32 34  1  0  0  0
 34 37  1  0  0  0
 37 38  1  0  0  0
 38 39  2  0  0  0
 39 40  1  0  0  0
 39 41  1  0  0  0
 41 42  1  0  0  0
 28 29  1  0  0  0
 29 30  2  0  0  0
  6  7  2  0  0  0
 13 14  1  0  0  0
 14 15  2  0  0  0
 22 17  1  0  0  0
 15 10  1  0  0  0
  7  1  1  0  0  0
 30 25  1  0  0  0
 42 37  2  0  0  0
  8  9  1  0  0  0
 23 24  1  0  0  0
 31 35  1  0  0  0
 34 36  1  0  0  0
M  END
> <minimizedAffinity>
-9.33337

> <CNNscore>
0.4467511475

> <CNNaffinity>
7.2377295494

> <CNN_VS>
3.2334640026

> <CNNaffinity_variance>
0.0093611656

$$$$
[H]c1nc(N([H])c2c([H])c([H])c(N3C([H])([H])C([H])([H])N(C([H])([H])[H])C([H])([H])C3([H])[H])c([H])c2[H])nc(N([H])c2c([H])c([H])c(N([H])C(=O)N([H])c3noc(C([H])([H])[H])c3[H])c([H])c2[H])c1Cl


 42 46  0  0  0  0  0  0  0  0999 V2000
   54.0125   -3.3967   -9.2525 C   0  0  0  0  0  0  0  0  0  0  0  0
   53.0601   -2.4673   -9.3109 N   0  0  0  0  0  0  0  0  0  0  0  0
   51.9620   -2.4057   -8.5564 C   0  0  0  0  0  0  0  0  0  0  0  0
   51.7820   -3.4015   -7.6146 C   0  0  0  0  0  0  0  0  0  0  0  0
   50.3644   -3.3541   -6.6146 Cl  0  0  0  0  0  0  0  0  0  0  0  0
   52.7508   -4.4122   -7.5023 C   0  0  0  0  0  0  0  0  0  0  0  0
   53.7987   -4.3679   -8.3059 N   0  0  0  0  0  0  0  0  0  0  0  0
   55.1633   -3.4492  -10.0539 N   0  0  0  0  0  0  0  0  0  0  0  0
   55.1356   -2.8861  -10.9522 H   0  0  0  0  0  0  0  0  0  0  0  0
   58.7259   -5.6664   -9.4353 C   0  0  0  0  0  0  0  0  0  0  0  0
   57.9554   -5.2961   -8.3619 C   0  0  0  0  0  0  0  0  0  0  0  0
   56.7780   -4.5564   -8.5370 C   0  0  0  0  0  0  0  0  0  0  0  0
   56.3272   -4.1617   -9.7745 C   0  0  0  0  0  0  0  0  0  0  0  0
   57.1340   -4.5524  -10.8613 C   0  0  0  0  0  0  0  0  0  0  0  0
   58.2706   -5.2681  -10.6715 C   0  0  0  0  0  0  0  0  0  0  0  0
   63.2065   -8.7433   -8.4626 C   0  0  0  0  0  0  0  0  0  0  0  0
   61.7962   -8.3483   -8.4546 N   0  0  0  0  0  0  0  0  0  0  0  0
   61.3636   -8.2712   -9.8238 C   0  0  0  0  0  0  0  0  0  0  0  0
   59.9921   -7.7040   -9.9953 C   0  0  0  0  0  0  0  0  0  0  0  0
   59.9237   -6.4144   -9.3237 N   0  0  0  0  0  0  0  0  0  0  0  0
   61.0933   -6.0044   -8.5936 C   0  0  0  0  0  0  0  0  0  0  0  0
   61.5757   -7.1520   -7.7017 C   0  0  0  0  0  0  0  0  0  0  0  0
   52.5295   -5.4140   -6.5632 N   0  0  0  0  0  0  0  0  0  0  0  0
   51.5088   -5.7173   -6.4046 H   0  0  0  0  0  0  0  0  0  0  0  0
   53.5399   -6.0382   -5.8194 C   0  0  0  0  0  0  0  0  0  0  0  0
   54.4980   -6.8902   -6.2779 C   0  0  0  0  0  0  0  0  0  0  0  0
   55.3984   -7.4480   -5.4292 C   0  0  0  0  0  0  0  0  0  0  0  0
   55.4217   -7.2018   -4.0408 C   0  0  0  0  0  0  0  0  0  0  0  0
   54.4431   -6.3373   -3.6150 C   0  0  0  0  0  0  0  0  0  0  0  0
   53.5230   -5.7610   -4.4444 C   0  0  0  0  0  0  0  0  0  0  0  0
   56.4070   -7.8141   -3.2663 N   0  0  0  0  0  0  0  0  0  0  0  0
   57.7878   -7.6514   -3.3951 C   0  0  0  0  0  0  0  0  0  0  0  0
   58.2636   -6.8885   -4.2681 O   0  0  0  0  0  0  0  0  0  0  0  0
   58.6994   -8.3692   -2.5125 N   0  0  0  0  0  0  0  0  0  0  0  0
   56.0847   -8.4799   -2.4966 H   0  0  0  0  0  0  0  0  0  0  0  0
   58.3142   -9.0008   -1.7892 H   0  0  0  0  0  0  0  0  0  0  0  0
   60.0820   -8.1535   -2.7028 C   0  0  0  0  0  0  0  0  0  0  0  0
   60.9216   -8.8539   -3.5790 C   0  0  0  0  0  0  0  0  0  0  0  0
   62.1841   -8.3246   -3.4487 C   0  0  0  0  0  0  0  0  0  0  0  0
   63.3974   -8.7475   -4.1758 C   0  0  0  0  0  0  0  0  0  0  0  0
   62.1038   -7.3746   -2.5569 O   0  0  0  0  0  0  0  0  0  0  0  0
   60.8875   -7.2565   -2.1079 N   0  0  0  0  0  0  0  0  0  0  0  0
 16 17  1  0  0  0
 17 18  1  0  0  0
 18 19  1  0  0  0
 19 20  1  0  0  0
 20 21  1  0  0  0
 21 22  1  0  0  0
 20 10  1  0  0  0
 10 11  2  0  0  0
 11 12  1  0  0  0
 12 13  2  0  0  0
 13  8  1  0  0  0
  8  1  1  0  0  0
  1  2  2  0  0  0
  2  3  1  0  0  0
  3  4  2  0  0  0
  4  5  1  0  0  0
  4  6  1  0  0  0
  6 23  1  0  0  0
 23 25  1  0  0  0
 25 26  2  0  0  0
 26 27  1  0  0  0
 27 28  2  0  0  0
 28 31  1  0  0  0
 31 32  1  0  0  0
 32 33  2  0  0  0
 32 34  1  0  0  0
 34 37  1  0  0  0
 37 38  1  0  0  0
 38 39  2  0  0  0
 39 40  1  0  0  0
 39 41  1  0  0  0
 41 42  1  0  0  0
 28 29  1  0  0  0
 29 30  2  0  0  0
  6  7  2  0  0  0
 13 14  1  0  0  0
 14 15  2  0  0  0
 22 17  1  0  0  0
 15 10  1  0  0  0
  7  1  1  0  0  0
 30 25  1  0  0  0
 42 37  2  0  0  0
  8  9  1  0  0  0
 23 24  1  0  0  0
 31 35  1  0  0  0
 34 36  1  0  0  0
M  END
> <minimizedAffinity>
-9.68134

> <CNNscore>
0.4368412793

> <CNNaffinity>
7.3138771057

> <CNN_VS>
3.1950035095

> <CNNaffinity_variance>
0.0493260324

$$$$
[H]c1nc(N([H])c2c([H])c([H])c(N3C([H])([H])C([H])([H])N(C([H])([H])[H])C([H])([H])C3([H])[H])c([H])c2[H])nc(N([H])c2c([H])c([H])c(N([H])C(=O)N([H])c3noc(C([H])([H])[H])c3[H])c([H])c2[H])c1Cl


 42 46  0  0  0  0  0  0  0  0999 V2000
   54.2128   -3.4734   -9.3635 C   0  0  0  0  0  0  0  0  0  0  0  0
   53.3024   -2.5010   -9.3681 N   0  0  0  0  0  0  0  0  0  0  0  0
   52.1819   -2.4576   -8.6459 C   0  0  0  0  0  0  0  0  0  0  0  0
   51.9279   -3.5236   -7.8032 C   0  0  0  0  0  0  0  0  0  0  0  0
   50.4791   -3.5018   -6.8479 Cl  0  0  0  0  0  0  0  0  0  0  0  0
   52.8495   -4.5823   -7.7517 C   0  0  0  0  0  0  0  0  0  0  0  0
   53.9259   -4.5137   -8.5149 N   0  0  0  0  0  0  0  0  0  0  0  0
   55.3879   -3.5059  -10.1299 N   0  0  0  0  0  0  0  0  0  0  0  0
   55.3859   -2.9244  -11.0169 H   0  0  0  0  0  0  0  0  0  0  0  0
   58.9335   -5.7314   -9.4466 C   0  0  0  0  0  0  0  0  0  0  0  0
   58.1490   -5.3518   -8.3866 C   0  0  0  0  0  0  0  0  0  0  0  0
   56.9769   -4.6092   -8.5831 C   0  0  0  0  0  0  0  0  0  0  0  0
   56.5453   -4.2207   -9.8294 C   0  0  0  0  0  0  0  0  0  0  0  0
   57.3661   -4.6208  -10.9021 C   0  0  0  0  0  0  0  0  0  0  0  0
   58.4973   -5.3392  -10.6916 C   0  0  0  0  0  0  0  0  0  0  0  0
   63.3903   -8.8149   -8.3894 C   0  0  0  0  0  0  0  0  0  0  0  0
   61.9816   -8.4144   -8.4019 N   0  0  0  0  0  0  0  0  0  0  0  0
   61.5649   -8.3506   -9.7766 C   0  0  0  0  0  0  0  0  0  0  0  0
   60.1978   -7.7799   -9.9700 C   0  0  0  0  0  0  0  0  0  0  0  0
   60.1269   -6.4828   -9.3131 N   0  0  0  0  0  0  0  0  0  0  0  0
   61.2898   -6.0695   -8.5742 C   0  0  0  0  0  0  0  0  0  0  0  0
   61.7574   -7.2091   -7.6645 C   0  0  0  0  0  0  0  0  0  0  0  0
   52.5540   -5.6522   -6.9136 N   0  0  0  0  0  0  0  0  0  0  0  0
   51.6931   -6.2470   -7.1667 H   0  0  0  0  0  0  0  0  0  0  0  0
   53.2957   -5.9929   -5.7744 C   0  0  0  0  0  0  0  0  0  0  0  0
   52.9490   -5.7955   -4.4725 C   0  0  0  0  0  0  0  0  0  0  0  0
   53.7885   -6.1498   -3.4665 C   0  0  0  0  0  0  0  0  0  0  0  0
   55.0542   -6.7363   -3.6735 C   0  0  0  0  0  0  0  0  0  0  0  0
   55.3690   -6.9217   -4.9975 C   0  0  0  0  0  0  0  0  0  0  0  0
   54.5458   -6.5749   -6.0314 C   0  0  0  0  0  0  0  0  0  0  0  0
   55.8254   -7.0794   -2.5631 N   0  0  0  0  0  0  0  0  0  0  0  0
   56.7466   -6.2624   -1.9047 C   0  0  0  0  0  0  0  0  0  0  0  0
   56.9491   -5.0870   -2.2895 O   0  0  0  0  0  0  0  0  0  0  0  0
   57.4889   -6.7667   -0.7559 N   0  0  0  0  0  0  0  0  0  0  0  0
   55.7111   -8.0656   -2.1705 H   0  0  0  0  0  0  0  0  0  0  0  0
   57.3273   -7.7360   -0.4322 H   0  0  0  0  0  0  0  0  0  0  0  0
   58.4026   -5.8821   -0.1419 C   0  0  0  0  0  0  0  0  0  0  0  0
   58.1558   -5.0720    0.9745 C   0  0  0  0  0  0  0  0  0  0  0  0
   59.3105   -4.3733    1.2380 C   0  0  0  0  0  0  0  0  0  0  0  0
   59.5220   -3.3962    2.3243 C   0  0  0  0  0  0  0  0  0  0  0  0
   60.1856   -4.7405    0.3415 O   0  0  0  0  0  0  0  0  0  0  0  0
   59.6786   -5.6198   -0.4739 N   0  0  0  0  0  0  0  0  0  0  0  0
 16 17  1  0  0  0
 17 18  1  0  0  0
 18 19  1  0  0  0
 19 20  1  0  0  0
 20 21  1  0  0  0
 21 22  1  0  0  0
 20 10  1  0  0  0
 10 11  2  0  0  0
 11 12  1  0  0  0
 12 13  2  0  0  0
 13  8  1  0  0  0
  8  1  1  0  0  0
  1  2  2  0  0  0
  2  3  1  0  0  0
  3  4  2  0  0  0
  4  5  1  0  0  0
  4  6  1  0  0  0
  6 23  1  0  0  0
 23 25  1  0  0  0
 25 26  2  0  0  0
 26 27  1  0  0  0
 27 28  2  0  0  0
 28 31  1  0  0  0
 31 32  1  0  0  0
 32 33  2  0  0  0
 32 34  1  0  0  0
 34 37  1  0  0  0
 37 38  1  0  0  0
 38 39  2  0  0  0
 39 40  1  0  0  0
 39 41  1  0  0  0
 41 42  1  0  0  0
 28 29  1  0  0  0
 29 30  2  0  0  0
  6  7  2  0  0  0
 13 14  1  0  0  0
 14 15  2  0  0  0
 22 17  1  0  0  0
 15 10  1  0  0  0
  7  1  1  0  0  0
 30 25  1  0  0  0
 42 37  2  0  0  0
  8  9  1  0  0  0
 23 24  1  0  0  0
 31 35  1  0  0  0
 34 36  1  0  0  0
M  END
> <minimizedAffinity>
-9.94178

> <CNNscore>
0.3871789873

> <CNNaffinity>
7.3927369118

> <CNN_VS>
2.8623123169

> <CNNaffinity_variance>
0.0149652902

$$$$
[H]c1nc(N([H])c2c([H])c([H])c(N3C([H])([H])C([H])([H])N(C([H])([H])[H])C([H])([H])C3([H])[H])c([H])c2[H])nc(N([H])c2c([H])c([H])c(N([H])C(=O)N([H])c3noc(C([H])([H])[H])c3[H])c([H])c2[H])c1Cl


 42 46  0  0  0  0  0  0  0  0999 V2000
   54.0048   -3.5960   -9.4480 C   0  0  0  0  0  0  0  0  0  0  0  0
   53.2507   -2.5031   -9.3422 N   0  0  0  0  0  0  0  0  0  0  0  0
   52.2076   -2.3327   -8.5287 C   0  0  0  0  0  0  0  0  0  0  0  0
   51.8637   -3.3898   -7.7070 C   0  0  0  0  0  0  0  0  0  0  0  0
   50.5116   -3.2044   -6.6350 Cl  0  0  0  0  0  0  0  0  0  0  0  0
   52.6197   -4.5719   -7.7701 C   0  0  0  0  0  0  0  0  0  0  0  0
   53.6328   -4.6234   -8.6168 N   0  0  0  0  0  0  0  0  0  0  0  0
   55.1001   -3.7615  -10.3097 N   0  0  0  0  0  0  0  0  0  0  0  0
   54.9706   -3.4175  -11.3045 H   0  0  0  0  0  0  0  0  0  0  0  0
   58.8840   -5.5109   -9.5272 C   0  0  0  0  0  0  0  0  0  0  0  0
   58.0022   -5.2989   -8.4974 C   0  0  0  0  0  0  0  0  0  0  0  0
   56.7488   -4.7153   -8.7265 C   0  0  0  0  0  0  0  0  0  0  0  0
   56.3297   -4.3251   -9.9765 C   0  0  0  0  0  0  0  0  0  0  0  0
   57.2510   -4.5518  -11.0178 C   0  0  0  0  0  0  0  0  0  0  0  0
   58.4598   -5.1178  -10.7761 C   0  0  0  0  0  0  0  0  0  0  0  0
   63.5974   -8.3203   -8.9106 C   0  0  0  0  0  0  0  0  0  0  0  0
   62.2634   -7.9906   -9.4172 N   0  0  0  0  0  0  0  0  0  0  0  0
   62.3614   -6.7266  -10.0957 C   0  0  0  0  0  0  0  0  0  0  0  0
   61.0444   -6.1607  -10.5167 C   0  0  0  0  0  0  0  0  0  0  0  0
   60.1628   -6.0970   -9.3603 N   0  0  0  0  0  0  0  0  0  0  0  0
   60.6717   -6.6424   -8.1303 C   0  0  0  0  0  0  0  0  0  0  0  0
   61.2712   -8.0279   -8.3871 C   0  0  0  0  0  0  0  0  0  0  0  0
   52.2341   -5.6267   -6.9497 N   0  0  0  0  0  0  0  0  0  0  0  0
   51.7485   -6.4620   -7.4245 H   0  0  0  0  0  0  0  0  0  0  0  0
   52.4322   -5.6634   -5.5629 C   0  0  0  0  0  0  0  0  0  0  0  0
   53.6194   -5.7206   -4.8985 C   0  0  0  0  0  0  0  0  0  0  0  0
   53.6570   -5.7844   -3.5432 C   0  0  0  0  0  0  0  0  0  0  0  0
   52.5062   -5.7957   -2.7281 C   0  0  0  0  0  0  0  0  0  0  0  0
   51.3284   -5.7352   -3.4319 C   0  0  0  0  0  0  0  0  0  0  0  0
   51.2585   -5.6711   -4.7949 C   0  0  0  0  0  0  0  0  0  0  0  0
   52.6643   -5.8424   -1.3430 N   0  0  0  0  0  0  0  0  0  0  0  0
   53.8547   -5.6669   -0.6347 C   0  0  0  0  0  0  0  0  0  0  0  0
   54.9290   -5.4336   -1.2364 O   0  0  0  0  0  0  0  0  0  0  0  0
   53.8652   -5.7529    0.8205 N   0  0  0  0  0  0  0  0  0  0  0  0
   51.7945   -6.0350   -0.7549 H   0  0  0  0  0  0  0  0  0  0  0  0
   52.9823   -5.9452    1.3245 H   0  0  0  0  0  0  0  0  0  0  0  0
   55.1064   -5.5641    1.4670 C   0  0  0  0  0  0  0  0  0  0  0  0
   56.0751   -4.6036    1.1466 C   0  0  0  0  0  0  0  0  0  0  0  0
   57.1227   -4.7693    2.0219 C   0  0  0  0  0  0  0  0  0  0  0  0
   58.3701   -3.9808    2.0643 C   0  0  0  0  0  0  0  0  0  0  0  0
   56.8019   -5.7595    2.8099 O   0  0  0  0  0  0  0  0  0  0  0  0
   55.6303   -6.2388    2.5051 N   0  0  0  0  0  0  0  0  0  0  0  0
 16 17  1  0  0  0
 17 18  1  0  0  0
 18 19  1  0  0  0
 19 20  1  0  0  0
 20 21  1  0  0  0
 21 22  1  0  0  0
 20 10  1  0  0  0
 10 11  2  0  0  0
 11 12  1  0  0  0
 12 13  2  0  0  0
 13  8  1  0  0  0
  8  1  1  0  0  0
  1  2  2  0  0  0
  2  3  1  0  0  0
  3  4  2  0  0  0
  4  5  1  0  0  0
  4  6  1  0  0  0
  6 23  1  0  0  0
 23 25  1  0  0  0
 25 26  2  0  0  0
 26 27  1  0  0  0
 27 28  2  0  0  0
 28 31  1  0  0  0
 31 32  1  0  0  0
 32 33  2  0  0  0
 32 34  1  0  0  0
 34 37  1  0  0  0
 37 38  1  0  0  0
 38 39  2  0  0  0
 39 40  1  0  0  0
 39 41  1  0  0  0
 41 42  1  0  0  0
 28 29  1  0  0  0
 29 30  2  0  0  0
  6  7  2  0  0  0
 13 14  1  0  0  0
 14 15  2  0  0  0
 22 17  1  0  0  0
 15 10  1  0  0  0
  7  1  1  0  0  0
 30 25  1  0  0  0
 42 37  2  0  0  0
  8  9  1  0  0  0
 23 24  1  0  0  0
 31 35  1  0  0  0
 34 36  1  0  0  0
M  END
> <minimizedAffinity>
-10.30824

> <CNNscore>
0.3280261457

> <CNNaffinity>
7.3812079430

> <CNN_VS>
2.4212291241

> <CNNaffinity_variance>
0.0126047730

$$$$
[H]c1nc(N([H])c2c([H])c([H])c(N3C([H])([H])C([H])([H])N(C([H])([H])[H])C([H])([H])C3([H])[H])c([H])c2[H])nc(N([H])c2c([H])c([H])c(N([H])C(=O)N([H])c3noc(C([H])([H])[H])c3[H])c([H])c2[H])c1Cl


 42 46  0  0  0  0  0  0  0  0999 V2000
   54.3441   -3.7219   -9.6039 C   0  0  0  0  0  0  0  0  0  0  0  0
   53.3062   -2.8871   -9.5890 N   0  0  0  0  0  0  0  0  0  0  0  0
   52.3136   -2.8684   -8.6983 C   0  0  0  0  0  0  0  0  0  0  0  0
   52.3542   -3.8052   -7.6825 C   0  0  0  0  0  0  0  0  0  0  0  0
   51.0794   -3.8110   -6.5050 Cl  0  0  0  0  0  0  0  0  0  0  0  0
   53.4232   -4.7154   -7.6414 C   0  0  0  0  0  0  0  0  0  0  0  0
   54.3495   -4.6369   -8.5803 N   0  0  0  0  0  0  0  0  0  0  0  0
   55.3817   -3.7303  -10.5487 N   0  0  0  0  0  0  0  0  0  0  0  0
   55.1870   -3.2310  -11.4639 H   0  0  0  0  0  0  0  0  0  0  0  0
   59.1587   -5.5223   -9.8319 C   0  0  0  0  0  0  0  0  0  0  0  0
   58.8306   -5.0999  -11.0956 C   0  0  0  0  0  0  0  0  0  0  0  0
   57.5866   -4.5121  -11.3620 C   0  0  0  0  0  0  0  0  0  0  0  0
   56.6320   -4.3238  -10.3905 C   0  0  0  0  0  0  0  0  0  0  0  0
   56.9903   -4.7652   -9.1016 C   0  0  0  0  0  0  0  0  0  0  0  0
   58.1994   -5.3322   -8.8635 C   0  0  0  0  0  0  0  0  0  0  0  0
   63.7067   -8.3763   -8.5439 C   0  0  0  0  0  0  0  0  0  0  0  0
   62.4320   -8.0639   -9.1937 N   0  0  0  0  0  0  0  0  0  0  0  0
   62.6290   -6.8746   -9.9776 C   0  0  0  0  0  0  0  0  0  0  0  0
   61.3719   -6.3193  -10.5634 C   0  0  0  0  0  0  0  0  0  0  0  0
   60.3985   -6.1214   -9.4994 N   0  0  0  0  0  0  0  0  0  0  0  0
   60.7834   -6.5575   -8.1838 C   0  0  0  0  0  0  0  0  0  0  0  0
   61.3558   -7.9760   -8.2552 C   0  0  0  0  0  0  0  0  0  0  0  0
   53.4233   -5.6620   -6.6224 N   0  0  0  0  0  0  0  0  0  0  0  0
   52.8692   -6.5682   -6.7981 H   0  0  0  0  0  0  0  0  0  0  0  0
   54.0867   -5.5061   -5.3979 C   0  0  0  0  0  0  0  0  0  0  0  0
   55.3885   -5.1582   -5.2012 C   0  0  0  0  0  0  0  0  0  0  0  0
   55.9064   -5.0769   -3.9493 C   0  0  0  0  0  0  0  0  0  0  0  0
   55.1656   -5.3362   -2.7776 C   0  0  0  0  0  0  0  0  0  0  0  0
   53.8576   -5.6820   -3.0144 C   0  0  0  0  0  0  0  0  0  0  0  0
   53.3082   -5.7730   -4.2621 C   0  0  0  0  0  0  0  0  0  0  0  0
   55.7957   -5.2012   -1.5406 N   0  0  0  0  0  0  0  0  0  0  0  0
   56.5138   -6.1867   -0.8602 C   0  0  0  0  0  0  0  0  0  0  0  0
   56.6544   -7.3307   -1.3524 O   0  0  0  0  0  0  0  0  0  0  0  0
   57.1125   -5.8981    0.4372 N   0  0  0  0  0  0  0  0  0  0  0  0
   55.7252   -4.2541   -1.0532 H   0  0  0  0  0  0  0  0  0  0  0  0
   57.0008   -4.9561    0.8500 H   0  0  0  0  0  0  0  0  0  0  0  0
   57.8238   -6.9446    1.0643 C   0  0  0  0  0  0  0  0  0  0  0  0
   57.2844   -7.9430    1.8863 C   0  0  0  0  0  0  0  0  0  0  0  0
   58.3222   -8.7535    2.2826 C   0  0  0  0  0  0  0  0  0  0  0  0
   58.2312   -9.9391    3.1577 C   0  0  0  0  0  0  0  0  0  0  0  0
   59.4056   -8.2726    1.7355 O   0  0  0  0  0  0  0  0  0  0  0  0
   59.1395   -7.2176    1.0205 N   0  0  0  0  0  0  0  0  0  0  0  0
 16 17  1  0  0  0
 17 18  1  0  0  0
 18 19  1  0  0  0
 19 20  1  0  0  0
 20 21  1  0  0  0
 21 22  1  0  0  0
 20 10  1  0  0  0
 10 11  2  0  0  0
 11 12  1  0  0  0
 12 13  2  0  0  0
 13  8  1  0  0  0
  8  1  1  0  0  0
  1  2  2  0  0  0
  2  3  1  0  0  0
  3  4  2  0  0  0
  4  5  1  0  0  0
  4  6  1  0  0  0
  6 23  1  0  0  0
 23 25  1  0  0  0
 25 26  2  0  0  0
 26 27  1  0  0  0
 27 28  2  0  0  0
 28 31  1  0  0  0
 31 32  1  0  0  0
 32 33  2  0  0  0
 32 34  1  0  0  0
 34 37  1  0  0  0
 37 38  1  0  0  0
 38 39  2  0  0  0
 39 40  1  0  0  0
 39 41  1  0  0  0
 41 42  1  0  0  0
 28 29  1  0  0  0
 29 30  2  0  0  0
  6  7  2  0  0  0
 13 14  1  0  0  0
 14 15  2  0  0  0
 22 17  1  0  0  0
 15 10  1  0  0  0
  7  1  1  0  0  0
 30 25  1  0  0  0
 42 37  2  0  0  0
  8  9  1  0  0  0
 23 24  1  0  0  0
 31 35  1  0  0  0
 34 36  1  0  0  0
M  END
> <minimizedAffinity>
-8.67151

> <CNNscore>
0.3191242516

> <CNNaffinity>
7.2217712402

> <CNN_VS>
2.3046424389

> <CNNaffinity_variance>
0.1454446316

$$$$
[H]c1nc(N([H])c2c([H])c([H])c(N3C([H])([H])C([H])([H])N(C([H])([H])[H])C([H])([H])C3([H])[H])c([H])c2[H])nc(N([H])c2c([H])c([H])c(N([H])C(=O)N([H])c3noc(C([H])([H])[H])c3[H])c([H])c2[H])c1Cl


 42 46  0  0  0  0  0  0  0  0999 V2000
   55.7579   -4.3277   -9.8698 C   0  0  0  0  0  0  0  0  0  0  0  0
   56.8310   -5.0238   -9.4981 N   0  0  0  0  0  0  0  0  0  0  0  0
   57.9934   -5.1000  -10.1477 C   0  0  0  0  0  0  0  0  0  0  0  0
   58.1092   -4.3894  -11.3278 C   0  0  0  0  0  0  0  0  0  0  0  0
   59.6073   -4.4648  -12.2006 Cl  0  0  0  0  0  0  0  0  0  0  0  0
   57.0126   -3.6345  -11.7755 C   0  0  0  0  0  0  0  0  0  0  0  0
   55.9112   -3.6357  -11.0456 N   0  0  0  0  0  0  0  0  0  0  0  0
   54.5402   -4.2572   -9.1759 N   0  0  0  0  0  0  0  0  0  0  0  0
   53.7547   -3.7329   -9.6586 H   0  0  0  0  0  0  0  0  0  0  0  0
   53.5046   -5.8667   -5.3907 C   0  0  0  0  0  0  0  0  0  0  0  0
   54.8199   -5.8239   -5.7793 C   0  0  0  0  0  0  0  0  0  0  0  0
   55.1893   -5.3050   -7.0276 C   0  0  0  0  0  0  0  0  0  0  0  0
   54.2728   -4.8135   -7.9270 C   0  0  0  0  0  0  0  0  0  0  0  0
   52.9292   -4.8679   -7.5073 C   0  0  0  0  0  0  0  0  0  0  0  0
   52.5914   -5.3743   -6.2950 C   0  0  0  0  0  0  0  0  0  0  0  0
   52.0807   -7.3946   -0.2793 C   0  0  0  0  0  0  0  0  0  0  0  0
   52.3576   -6.5038   -1.4083 N   0  0  0  0  0  0  0  0  0  0  0  0
   51.4236   -6.8294   -2.4520 C   0  0  0  0  0  0  0  0  0  0  0  0
   51.6907   -6.1296   -3.7447 C   0  0  0  0  0  0  0  0  0  0  0  0
   53.0686   -6.3770   -4.1432 N   0  0  0  0  0  0  0  0  0  0  0  0
   53.8812   -7.1279   -3.2238 C   0  0  0  0  0  0  0  0  0  0  0  0
   53.7292   -6.5554   -1.8117 C   0  0  0  0  0  0  0  0  0  0  0  0
   57.1506   -2.9507  -12.9787 N   0  0  0  0  0  0  0  0  0  0  0  0
   57.3084   -1.8873  -12.9203 H   0  0  0  0  0  0  0  0  0  0  0  0
   57.0917   -3.5535  -14.2424 C   0  0  0  0  0  0  0  0  0  0  0  0
   56.2544   -4.5488  -14.6456 C   0  0  0  0  0  0  0  0  0  0  0  0
   56.3341   -5.0609  -15.9000 C   0  0  0  0  0  0  0  0  0  0  0  0
   57.2612   -4.6211  -16.8674 C   0  0  0  0  0  0  0  0  0  0  0  0
   58.0873   -3.6163  -16.4263 C   0  0  0  0  0  0  0  0  0  0  0  0
   58.0317   -3.0814  -15.1703 C   0  0  0  0  0  0  0  0  0  0  0  0
   57.2393   -5.2055  -18.1337 N   0  0  0  0  0  0  0  0  0  0  0  0
   57.9340   -6.3482  -18.5353 C   0  0  0  0  0  0  0  0  0  0  0  0
   58.6657   -6.9687  -17.7289 O   0  0  0  0  0  0  0  0  0  0  0  0
   57.8178   -6.8378  -19.9034 N   0  0  0  0  0  0  0  0  0  0  0  0
   56.6369   -4.7381  -18.8808 H   0  0  0  0  0  0  0  0  0  0  0  0
   57.2157   -6.3310  -20.5750 H   0  0  0  0  0  0  0  0  0  0  0  0
   58.5498   -7.9990  -20.2353 C   0  0  0  0  0  0  0  0  0  0  0  0
   58.0734   -9.3167  -20.2208 C   0  0  0  0  0  0  0  0  0  0  0  0
   59.1098  -10.1322  -20.6102 C   0  0  0  0  0  0  0  0  0  0  0  0
   59.0741  -11.6022  -20.7424 C   0  0  0  0  0  0  0  0  0  0  0  0
   60.1336   -9.3557  -20.8409 O   0  0  0  0  0  0  0  0  0  0  0  0
   59.8306   -8.1074  -20.6290 N   0  0  0  0  0  0  0  0  0  0  0  0
 16 17  1  0  0  0
 17 18  1  0  0  0
 18 19  1  0  0  0
 19 20  1  0  0  0
 20 21  1  0  0  0
 21 22  1  0  0  0
 20 10  1  0  0  0
 10 11  2  0  0  0
 11 12  1  0  0  0
 12 13  2  0  0  0
 13  8  1  0  0  0
  8  1  1  0  0  0
  1  2  2  0  0  0
  2  3  1  0  0  0
  3  4  2  0  0  0
  4  5  1  0  0  0
  4  6  1  0  0  0
  6 23  1  0  0  0
 23 25  1  0  0  0
 25 26  2  0  0  0
 26 27  1  0  0  0
 27 28  2  0  0  0
 28 31  1  0  0  0
 31 32  1  0  0  0
 32 33  2  0  0  0
 32 34  1  0  0  0
 34 37  1  0  0  0
 37 38  1  0  0  0
 38 39  2  0  0  0
 39 40  1  0  0  0
 39 41  1  0  0  0
 41 42  1  0  0  0
 28 29  1  0  0  0
 29 30  2  0  0  0
  6  7  2  0  0  0
 13 14  1  0  0  0
 14 15  2  0  0  0
 22 17  1  0  0  0
 15 10  1  0  0  0
  7  1  1  0  0  0
 30 25  1  0  0  0
 42 37  2  0  0  0
  8  9  1  0  0  0
 23 24  1  0  0  0
 31 35  1  0  0  0
 34 36  1  0  0  0
M  END
> <minimizedAffinity>
-7.48139

> <CNNscore>
0.2221432924

> <CNNaffinity>
6.4533128738

> <CNN_VS>
1.4335601330

> <CNNaffinity_variance>
0.0982540920

$$$$
[H]c1nc(N([H])c2c([H])c([H])c(N3C([H])([H])C([H])([H])N(C([H])([H])[H])C([H])([H])C3([H])[H])c([H])c2[H])nc(N([H])c2c([H])c([H])c(N([H])C(=O)N([H])c3noc(C([H])([H])[H])c3[H])c([H])c2[H])c1Cl


 42 46  0  0  0  0  0  0  0  0999 V2000
   55.5974   -4.2828   -9.2261 C   0  0  0  0  0  0  0  0  0  0  0  0
   54.5675   -3.4824   -9.4966 N   0  0  0  0  0  0  0  0  0  0  0  0
   53.4068   -3.4313   -8.8415 C   0  0  0  0  0  0  0  0  0  0  0  0
   53.2432   -4.2910   -7.7714 C   0  0  0  0  0  0  0  0  0  0  0  0
   51.7457   -4.2528   -6.8951 Cl  0  0  0  0  0  0  0  0  0  0  0  0
   54.2926   -5.1615   -7.4339 C   0  0  0  0  0  0  0  0  0  0  0  0
   55.3974   -5.1212   -8.1575 N   0  0  0  0  0  0  0  0  0  0  0  0
   56.8135   -4.3260   -9.9250 N   0  0  0  0  0  0  0  0  0  0  0  0
   57.6804   -4.5227   -9.3466 H   0  0  0  0  0  0  0  0  0  0  0  0
   57.5473   -3.7048  -14.0562 C   0  0  0  0  0  0  0  0  0  0  0  0
   56.2606   -3.8626  -13.6060 C   0  0  0  0  0  0  0  0  0  0  0  0
   55.9903   -4.0772  -12.2477 C   0  0  0  0  0  0  0  0  0  0  0  0
   56.9803   -4.1419  -11.2957 C   0  0  0  0  0  0  0  0  0  0  0  0
   58.2927   -3.9778  -11.7806 C   0  0  0  0  0  0  0  0  0  0  0  0
   58.5343   -3.7712  -13.0993 C   0  0  0  0  0  0  0  0  0  0  0  0
   58.5200   -2.3603  -19.3226 C   0  0  0  0  0  0  0  0  0  0  0  0
   58.2931   -2.1739  -17.8878 N   0  0  0  0  0  0  0  0  0  0  0  0
   59.3633   -2.8374  -17.1935 C   0  0  0  0  0  0  0  0  0  0  0  0
   59.1815   -2.8942  -15.7117 C   0  0  0  0  0  0  0  0  0  0  0  0
   57.8844   -3.4838  -15.4142 N   0  0  0  0  0  0  0  0  0  0  0  0
   57.0440   -3.7951  -16.5394 C   0  0  0  0  0  0  0  0  0  0  0  0
   56.9854   -2.5957  -17.4895 C   0  0  0  0  0  0  0  0  0  0  0  0
   54.0889   -6.0321   -6.3686 N   0  0  0  0  0  0  0  0  0  0  0  0
   53.1937   -6.6297   -6.3911 H   0  0  0  0  0  0  0  0  0  0  0  0
   54.9633   -6.1711   -5.2823 C   0  0  0  0  0  0  0  0  0  0  0  0
   56.0998   -6.9190   -5.2261 C   0  0  0  0  0  0  0  0  0  0  0  0
   56.8351   -6.9845   -4.0872 C   0  0  0  0  0  0  0  0  0  0  0  0
   56.4988   -6.3044   -2.8984 C   0  0  0  0  0  0  0  0  0  0  0  0
   55.3487   -5.5596   -2.9927 C   0  0  0  0  0  0  0  0  0  0  0  0
   54.5875   -5.4747   -4.1241 C   0  0  0  0  0  0  0  0  0  0  0  0
   57.3403   -6.4276   -1.7928 N   0  0  0  0  0  0  0  0  0  0  0  0
   57.3256   -7.4534   -0.8456 C   0  0  0  0  0  0  0  0  0  0  0  0
   56.5057   -8.3968   -0.9368 O   0  0  0  0  0  0  0  0  0  0  0  0
   58.2672   -7.4417    0.2672 N   0  0  0  0  0  0  0  0  0  0  0  0
   58.0710   -5.6638   -1.6432 H   0  0  0  0  0  0  0  0  0  0  0  0
   58.9471   -6.6662    0.3493 H   0  0  0  0  0  0  0  0  0  0  0  0
   58.1921   -8.5129    1.1844 C   0  0  0  0  0  0  0  0  0  0  0  0
   58.9822   -9.6701    1.1804 C   0  0  0  0  0  0  0  0  0  0  0  0
   58.5797  -10.4457    2.2422 C   0  0  0  0  0  0  0  0  0  0  0  0
   59.1291  -11.7588    2.6340 C   0  0  0  0  0  0  0  0  0  0  0  0
   57.6165   -9.7968    2.8385 O   0  0  0  0  0  0  0  0  0  0  0  0
   57.3731   -8.6669    2.2393 N   0  0  0  0  0  0  0  0  0  0  0  0
 16 17  1  0  0  0
 17 18  1  0  0  0
 18 19  1  0  0  0
 19 20  1  0  0  0
 20 21  1  0  0  0
 21 22  1  0  0  0
 20 10  1  0  0  0
 10 11  2  0  0  0
 11 12  1  0  0  0
 12 13  2  0  0  0
 13  8  1  0  0  0
  8  1  1  0  0  0
  1  2  2  0  0  0
  2  3  1  0  0  0
  3  4  2  0  0  0
  4  5  1  0  0  0
  4  6  1  0  0  0
  6 23  1  0  0  0
 23 25  1  0  0  0
 25 26  2  0  0  0
 26 27  1  0  0  0
 27 28  2  0  0  0
 28 31  1  0  0  0
 31 32  1  0  0  0
 32 33  2  0  0  0
 32 34  1  0  0  0
 34 37  1  0  0  0
 37 38  1  0  0  0
 38 39  2  0  0  0
 39 40  1  0  0  0
 39 41  1  0  0  0
 41 42  1  0  0  0
 28 29  1  0  0  0
 29 30  2  0  0  0
  6  7  2  0  0  0
 13 14  1  0  0  0
 14 15  2  0  0  0
 22 17  1  0  0  0
 15 10  1  0  0  0
  7  1  1  0  0  0
 30 25  1  0  0  0
 42 37  2  0  0  0
  8  9  1  0  0  0
 23 24  1  0  0  0
 31 35  1  0  0  0
 34 36  1  0  0  0
M  END
> <minimizedAffinity>
-7.78780

> <CNNscore>
0.1720798463

> <CNNaffinity>
6.6632828712

> <CNN_VS>
1.1466166973

> <CNNaffinity_variance>
0.2854615748

$$$$
[H]c1nc(N([H])c2c([H])c([H])c(N3C([H])([H])C([H])([H])N(C([H])([H])[H])C([H])([H])C3([H])[H])c([H])c2[H])nc(N([H])c2c([H])c([H])c(N([H])C(=O)N([H])c3noc(C([H])([H])[H])c3[H])c([H])c2[H])c1Cl


 42 46  0  0  0  0  0  0  0  0999 V2000
   54.4549   -4.0608   -8.9188 C   0  0  0  0  0  0  0  0  0  0  0  0
   53.9112   -2.8865   -9.2348 N   0  0  0  0  0  0  0  0  0  0  0  0
   52.7328   -2.4189   -8.8206 C   0  0  0  0  0  0  0  0  0  0  0  0
   51.9905   -3.2248   -7.9777 C   0  0  0  0  0  0  0  0  0  0  0  0
   50.4517   -2.6492   -7.4185 Cl  0  0  0  0  0  0  0  0  0  0  0  0
   52.5080   -4.4766   -7.6062 C   0  0  0  0  0  0  0  0  0  0  0  0
   53.6887   -4.8323   -8.0807 N   0  0  0  0  0  0  0  0  0  0  0  0
   55.6967   -4.5404   -9.3630 N   0  0  0  0  0  0  0  0  0  0  0  0
   56.2442   -5.1333   -8.6749 H   0  0  0  0  0  0  0  0  0  0  0  0
   57.6389   -3.8472  -13.0696 C   0  0  0  0  0  0  0  0  0  0  0  0
   56.2736   -3.7396  -12.9818 C   0  0  0  0  0  0  0  0  0  0  0  0
   55.6057   -3.9712  -11.7718 C   0  0  0  0  0  0  0  0  0  0  0  0
   56.2646   -4.3145  -10.6149 C   0  0  0  0  0  0  0  0  0  0  0  0
   57.6648   -4.4196  -10.7286 C   0  0  0  0  0  0  0  0  0  0  0  0
   58.2933   -4.1919  -11.9089 C   0  0  0  0  0  0  0  0  0  0  0  0
   60.2882   -2.4235  -17.7002 C   0  0  0  0  0  0  0  0  0  0  0  0
   59.7400   -2.2930  -16.3484 N   0  0  0  0  0  0  0  0  0  0  0  0
   60.3845   -3.2809  -15.5259 C   0  0  0  0  0  0  0  0  0  0  0  0
   59.8050   -3.3994  -14.1541 C   0  0  0  0  0  0  0  0  0  0  0  0
   58.3709   -3.6244  -14.2617 N   0  0  0  0  0  0  0  0  0  0  0  0
   57.8118   -3.6003  -15.5869 C   0  0  0  0  0  0  0  0  0  0  0  0
   58.3111   -2.3623  -16.3372 C   0  0  0  0  0  0  0  0  0  0  0  0
   51.7271   -5.2753   -6.7776 N   0  0  0  0  0  0  0  0  0  0  0  0
   50.9044   -5.7966   -7.2365 H   0  0  0  0  0  0  0  0  0  0  0  0
   51.9411   -5.4349   -5.4019 C   0  0  0  0  0  0  0  0  0  0  0  0
   53.0251   -5.9897   -4.7927 C   0  0  0  0  0  0  0  0  0  0  0  0
   53.0805   -6.1080   -3.4417 C   0  0  0  0  0  0  0  0  0  0  0  0
   52.0530   -5.6794   -2.5759 C   0  0  0  0  0  0  0  0  0  0  0  0
   50.9775   -5.1239   -3.2249 C   0  0  0  0  0  0  0  0  0  0  0  0
   50.8926   -4.9921   -4.5822 C   0  0  0  0  0  0  0  0  0  0  0  0
   52.2264   -5.8317   -1.2003 N   0  0  0  0  0  0  0  0  0  0  0  0
   53.4242   -5.7082   -0.4935 C   0  0  0  0  0  0  0  0  0  0  0  0
   54.4914   -5.4267   -1.0871 O   0  0  0  0  0  0  0  0  0  0  0  0
   53.4508   -5.9055    0.9506 N   0  0  0  0  0  0  0  0  0  0  0  0
   51.3634   -6.0711   -0.6192 H   0  0  0  0  0  0  0  0  0  0  0  0
   52.5738   -6.1381    1.4479 H   0  0  0  0  0  0  0  0  0  0  0  0
   54.6988   -5.7638    1.5962 C   0  0  0  0  0  0  0  0  0  0  0  0
   55.6919   -4.8232    1.2924 C   0  0  0  0  0  0  0  0  0  0  0  0
   56.7375   -5.0353    2.1600 C   0  0  0  0  0  0  0  0  0  0  0  0
   58.0059   -4.2817    2.2142 C   0  0  0  0  0  0  0  0  0  0  0  0
   56.3926   -6.0329    2.9283 O   0  0  0  0  0  0  0  0  0  0  0  0
   55.2076   -6.4740    2.6180 N   0  0  0  0  0  0  0  0  0  0  0  0
 16 17  1  0  0  0
 17 18  1  0  0  0
 18 19  1  0  0  0
 19 20  1  0  0  0
 20 21  1  0  0  0
 21 22  1  0  0  0
 20 10  1  0  0  0
 10 11  2  0  0  0
 11 12  1  0  0  0
 12 13  2  0  0  0
 13  8  1  0  0  0
  8  1  1  0  0  0
  1  2  2  0  0  0
  2  3  1  0  0  0
  3  4  2  0  0  0
  4  5  1  0  0  0
  4  6  1  0  0  0
  6 23  1  0  0  0
 23 25  1  0  0  0
 25 26  2  0  0  0
 26 27  1  0  0  0
 27 28  2  0  0  0
 28 31  1  0  0  0
 31 32  1  0  0  0
 32 33  2  0  0  0
 32 34  1  0  0  0
 34 37  1  0  0  0
 37 38  1  0  0  0
 38 39  2  0  0  0
 39 40  1  0  0  0
 39 41  1  0  0  0
 41 42  1  0  0  0
 28 29  1  0  0  0
 29 30  2  0  0  0
  6  7  2  0  0  0
 13 14  1  0  0  0
 14 15  2  0  0  0
 22 17  1  0  0  0
 15 10  1  0  0  0
  7  1  1  0  0  0
 30 25  1  0  0  0
 42 37  2  0  0  0
  8  9  1  0  0  0
 23 24  1  0  0  0
 31 35  1  0  0  0
 34 36  1  0  0  0
M  END
> <minimizedAffinity>
-10.08148

> <CNNscore>
0.1652854830

> <CNNaffinity>
7.0442466736

> <CNN_VS>
1.1643117666

> <CNNaffinity_variance>
0.0367679410

$$$$
[H]c1nc(N([H])c2c([H])c([H])c(N3C([H])([H])C([H])([H])N(C([H])([H])[H])C([H])([H])C3([H])[H])c([H])c2[H])nc(N([H])c2c([H])c([H])c(N([H])C(=O)N([H])c3noc(C([H])([H])[H])c3[H])c([H])c2[H])c1Cl


 42 46  0  0  0  0  0  0  0  0999 V2000
   54.0562   -4.2615   -8.4721 C   0  0  0  0  0  0  0  0  0  0  0  0
   53.7135   -3.0376   -8.8708 N   0  0  0  0  0  0  0  0  0  0  0  0
   52.5966   -2.3816   -8.5530 C   0  0  0  0  0  0  0  0  0  0  0  0
   51.6948   -3.0260   -7.7269 C   0  0  0  0  0  0  0  0  0  0  0  0
   50.2300   -2.2031   -7.2921 Cl  0  0  0  0  0  0  0  0  0  0  0  0
   51.9969   -4.3198   -7.2712 C   0  0  0  0  0  0  0  0  0  0  0  0
   53.1363   -4.8687   -7.6536 N   0  0  0  0  0  0  0  0  0  0  0  0
   55.2356   -4.9401   -8.8152 N   0  0  0  0  0  0  0  0  0  0  0  0
   55.4781   -5.7874   -8.2252 H   0  0  0  0  0  0  0  0  0  0  0  0
   57.6881   -3.9236  -12.1233 C   0  0  0  0  0  0  0  0  0  0  0  0
   58.2623   -4.3323  -10.9458 C   0  0  0  0  0  0  0  0  0  0  0  0
   57.4762   -4.6663   -9.8349 C   0  0  0  0  0  0  0  0  0  0  0  0
   56.1026   -4.6073   -9.8536 C   0  0  0  0  0  0  0  0  0  0  0  0
   55.5352   -4.1849  -11.0719 C   0  0  0  0  0  0  0  0  0  0  0  0
   56.3131   -3.8656  -12.1363 C   0  0  0  0  0  0  0  0  0  0  0  0
   60.7791   -3.1165  -16.6269 C   0  0  0  0  0  0  0  0  0  0  0  0
   59.9006   -3.8112  -15.6832 N   0  0  0  0  0  0  0  0  0  0  0  0
   58.6700   -3.0703  -15.6162 C   0  0  0  0  0  0  0  0  0  0  0  0
   57.7308   -3.5492  -14.5577 C   0  0  0  0  0  0  0  0  0  0  0  0
   58.4275   -3.5745  -13.2800 N   0  0  0  0  0  0  0  0  0  0  0  0
   59.8262   -3.2390  -13.3012 C   0  0  0  0  0  0  0  0  0  0  0  0
   60.5292   -4.0199  -14.4151 C   0  0  0  0  0  0  0  0  0  0  0  0
   51.0589   -4.9523   -6.4622 N   0  0  0  0  0  0  0  0  0  0  0  0
   50.0780   -5.1040   -6.8792 H   0  0  0  0  0  0  0  0  0  0  0  0
   51.3094   -5.3917   -5.1553 C   0  0  0  0  0  0  0  0  0  0  0  0
   52.3492   -6.1589   -4.7260 C   0  0  0  0  0  0  0  0  0  0  0  0
   52.4458   -6.5373   -3.4261 C   0  0  0  0  0  0  0  0  0  0  0  0
   51.5080   -6.1799   -2.4354 C   0  0  0  0  0  0  0  0  0  0  0  0
   50.4751   -5.4053   -2.9040 C   0  0  0  0  0  0  0  0  0  0  0  0
   50.3504   -5.0095   -4.2058 C   0  0  0  0  0  0  0  0  0  0  0  0
   51.7190   -6.6081   -1.1247 N   0  0  0  0  0  0  0  0  0  0  0  0
   50.8354   -7.3511   -0.3393 C   0  0  0  0  0  0  0  0  0  0  0  0
   49.7243   -7.7120   -0.7930 O   0  0  0  0  0  0  0  0  0  0  0  0
   51.1940   -7.7194    1.0248 N   0  0  0  0  0  0  0  0  0  0  0  0
   52.6446   -6.3433   -0.6637 H   0  0  0  0  0  0  0  0  0  0  0  0
   52.1096   -7.4252    1.4065 H   0  0  0  0  0  0  0  0  0  0  0  0
   50.2495   -8.4714    1.7573 C   0  0  0  0  0  0  0  0  0  0  0  0
   49.9778   -9.8381    1.6099 C   0  0  0  0  0  0  0  0  0  0  0  0
   48.9947  -10.1612    2.5156 C   0  0  0  0  0  0  0  0  0  0  0  0
   48.3881  -11.4912    2.7223 C   0  0  0  0  0  0  0  0  0  0  0  0
   48.7001   -9.0640    3.1588 O   0  0  0  0  0  0  0  0  0  0  0  0
   49.4193   -8.0655    2.7336 N   0  0  0  0  0  0  0  0  0  0  0  0
 16 17  1  0  0  0
 17 18  1  0  0  0
 18 19  1  0  0  0
 19 20  1  0  0  0
 20 21  1  0  0  0
 21 22  1  0  0  0
 20 10  1  0  0  0
 10 11  2  0  0  0
 11 12  1  0  0  0
 12 13  2  0  0  0
 13  8  1  0  0  0
  8  1  1  0  0  0
  1  2  2  0  0  0
  2  3  1  0  0  0
  3  4  2  0  0  0
  4  5  1  0  0  0
  4  6  1  0  0  0
  6 23  1  0  0  0
 23 25  1  0  0  0
 25 26  2  0  0  0
 26 27  1  0  0  0
 27 28  2  0  0  0
 28 31  1  0  0  0
 31 32  1  0  0  0
 32 33  2  0  0  0
 32 34  1  0  0  0
 34 37  1  0  0  0
 37 38  1  0  0  0
 38 39  2  0  0  0
 39 40  1  0  0  0
 39 41  1  0  0  0
 41 42  1  0  0  0
 28 29  1  0  0  0
 29 30  2  0  0  0
  6  7  2  0  0  0
 13 14  1  0  0  0
 14 15  2  0  0  0
 22 17  1  0  0  0
 15 10  1  0  0  0
  7  1  1  0  0  0
 30 25  1  0  0  0
 42 37  2  0  0  0
  8  9  1  0  0  0
 23 24  1  0  0  0
 31 35  1  0  0  0
 34 36  1  0  0  0
M  END
> <minimizedAffinity>
-10.20551

> <CNNscore>
0.1475725174

> <CNNaffinity>
6.9422316551

> <CNN_VS>
1.0244826078

> <CNNaffinity_variance>
0.1768457443

$$$$
[H]c1c([H])c([H])c2c(c1[H])c1c3c(c4c5c([H])c([H])c([H])c([H])c5n5c4c1n2[C@@]1([H])O[C@]5(C([H])([H])[H])[C@@]([H])(OC([H])([H])[H])[C@@]([H])(N([H])C([H])([H])[H])C1([H])[H])C([H])([H])N([H])C3=O


 37 44  0  0  0  0  0  0  0  0999 V2000
   55.4484   -8.0923   -4.1373 C   0  0  0  0  0  0  0  0  0  0  0  0
   56.4111   -7.3298   -4.9504 C   0  0  0  0  0  0  0  0  0  0  0  0
   56.3728   -5.8488   -4.7603 C   0  0  0  0  0  0  0  0  0  0  0  0
   55.7213   -5.3444   -3.7473 O   0  0  0  0  0  0  0  0  0  0  0  0
   54.5856   -5.8944   -3.1990 C   0  0  0  0  0  0  0  0  0  0  0  0
   54.5704   -5.2077   -1.8176 C   0  0  0  0  0  0  0  0  0  0  0  0
   54.7850   -7.3297   -3.0124 C   0  0  0  0  0  0  0  0  0  0  0  0
   53.4429   -5.4773   -3.9943 N   0  0  0  0  0  0  0  0  0  0  0  0
   52.1652   -5.3578   -3.6196 C   0  0  0  0  0  0  0  0  0  0  0  0
   51.5301   -5.6077   -2.4400 C   0  0  0  0  0  0  0  0  0  0  0  0
   50.1650   -5.3954   -2.3186 C   0  0  0  0  0  0  0  0  0  0  0  0
   49.3912   -4.9321   -3.3546 C   0  0  0  0  0  0  0  0  0  0  0  0
   50.0289   -4.6722   -4.5692 C   0  0  0  0  0  0  0  0  0  0  0  0
   51.3836   -4.8921   -4.6597 C   0  0  0  0  0  0  0  0  0  0  0  0
   52.2353   -4.7176   -5.7358 C   0  0  0  0  0  0  0  0  0  0  0  0
   52.0482   -4.2725   -7.0371 C   0  0  0  0  0  0  0  0  0  0  0  0
   50.7871   -3.8344   -7.7089 C   0  0  0  0  0  0  0  0  0  0  0  0
   51.1706   -3.4607   -9.0399 N   0  0  0  0  0  0  0  0  0  0  0  0
   52.5698   -3.6715   -9.2109 C   0  0  0  0  0  0  0  0  0  0  0  0
   53.1319   -3.4343  -10.2829 O   0  0  0  0  0  0  0  0  0  0  0  0
   53.0795   -4.1744   -7.9482 C   0  0  0  0  0  0  0  0  0  0  0  0
   54.3267   -4.5493   -7.4938 C   0  0  0  0  0  0  0  0  0  0  0  0
   55.5737   -4.6080   -8.0790 C   0  0  0  0  0  0  0  0  0  0  0  0
   56.0535   -4.3073   -9.3220 C   0  0  0  0  0  0  0  0  0  0  0  0
   57.4119   -4.4901   -9.5784 C   0  0  0  0  0  0  0  0  0  0  0  0
   58.2924   -4.9621   -8.6296 C   0  0  0  0  0  0  0  0  0  0  0  0
   57.8057   -5.2654   -7.3750 C   0  0  0  0  0  0  0  0  0  0  0  0
   56.4826   -5.0876   -7.1245 C   0  0  0  0  0  0  0  0  0  0  0  0
   55.7941   -5.3074   -6.0026 N   0  0  0  0  0  0  0  0  0  0  0  0
   54.5102   -4.9931   -6.1962 C   0  0  0  0  0  0  0  0  0  0  0  0
   53.4576   -5.0776   -5.3050 C   0  0  0  0  0  0  0  0  0  0  0  0
   50.5009   -3.0857   -9.7744 H   0  0  0  0  0  0  0  0  0  0  0  0
   54.6254   -8.2679   -6.3192 C   0  0  0  0  0  0  0  0  0  0  0  0
   54.3954   -8.7051   -4.9578 N   0  0  0  0  0  0  0  0  0  0  0  0
   54.4272   -9.7286   -4.9505 H   0  0  0  0  0  0  0  0  0  0  0  0
   53.6840   -8.1037   -2.6805 O   0  0  0  0  0  0  0  0  0  0  0  0
   53.5301   -8.3755   -1.3500 C   0  0  0  0  0  0  0  0  0  0  0  0
 33 34  1  0  0  0
 34  1  1  0  0  0
  1  2  1  0  0  0
  2  3  1  0  0  0
  3  4  1  0  0  0
  4  5  1  0  0  0
  5  6  1  0  0  0
  5  7  1  0  0  0
  7 36  1  0  0  0
 36 37  1  0  0  0
  5  8  1  0  0  0
  8  9  1  0  0  0
  9 10  2  0  0  0
 10 11  1  0  0  0
 11 12  2  0  0  0
 12 13  1  0  0  0
 13 14  2  0  0  0
 14 15  1  0  0  0
 15 16  2  0  0  0
 16 17  1  0  0  0
 17 18  1  0  0  0
 18 19  1  0  0  0
 19 20  2  0  0  0
 19 21  1  0  0  0
 21 22  2  0  0  0
 22 23  1  0  0  0
 23 24  2  0  0  0
 24 25  1  0  0  0
 25 26  2  0  0  0
 26 27  1  0  0  0
 27 28  2  0  0  0
 28 29  1  0  0  0
 29 30  1  0  0  0
 30 31  2  0  0  0
  7  1  1  0  0  0
 31  8  1  0  0  0
 29  3  1  0  0  0
 14  9  1  0  0  0
 31 15  1  0  0  0
 21 16  1  0  0  0
 30 22  1  0  0  0
 28 23  1  0  0  0
 34 35  1  0  0  0
 18 32  1  0  0  0
M  END
> <minimizedAffinity>
-6.22539

> <CNNscore>
0.4324832857

> <CNNaffinity>
6.9022660255

> <CNN_VS>
2.9851145744

> <CNNaffinity_variance>
0.3426883221

$$$$
[H]c1c([H])c([H])c2c(c1[H])c1c3c(c4c5c([H])c([H])c([H])c([H])c5n5c4c1n2[C@@]1([H])O[C@]5(C([H])([H])[H])[C@@]([H])(OC([H])([H])[H])[C@@]([H])(N([H])C([H])([H])[H])C1([H])[H])C([H])([H])N([H])C3=O


 37 44  0  0  0  0  0  0  0  0999 V2000
   59.0711   -3.2636  -15.2084 C   0  0  0  0  0  0  0  0  0  0  0  0
   58.5129   -3.1805  -13.8480 C   0  0  0  0  0  0  0  0  0  0  0  0
   59.4901   -2.8128  -12.7800 C   0  0  0  0  0  0  0  0  0  0  0  0
   60.6623   -2.3424  -13.1115 O   0  0  0  0  0  0  0  0  0  0  0  0
   61.3541   -2.7013  -14.2453 C   0  0  0  0  0  0  0  0  0  0  0  0
   62.3481   -1.5271  -14.3606 C   0  0  0  0  0  0  0  0  0  0  0  0
   60.4503   -2.6713  -15.3929 C   0  0  0  0  0  0  0  0  0  0  0  0
   62.0557   -3.9463  -13.9809 N   0  0  0  0  0  0  0  0  0  0  0  0
   63.1666   -4.4161  -14.5574 C   0  0  0  0  0  0  0  0  0  0  0  0
   63.9537   -3.9308  -15.5586 C   0  0  0  0  0  0  0  0  0  0  0  0
   65.0733   -4.6349  -15.9756 C   0  0  0  0  0  0  0  0  0  0  0  0
   65.4461   -5.8336  -15.4182 C   0  0  0  0  0  0  0  0  0  0  0  0
   64.6485   -6.3428  -14.3916 C   0  0  0  0  0  0  0  0  0  0  0  0
   63.5445   -5.6223  -13.9991 C   0  0  0  0  0  0  0  0  0  0  0  0
   62.6067   -5.9076  -13.0228 C   0  0  0  0  0  0  0  0  0  0  0  0
   62.4519   -6.9568  -12.1275 C   0  0  0  0  0  0  0  0  0  0  0  0
   63.2996   -8.1749  -11.9505 C   0  0  0  0  0  0  0  0  0  0  0  0
   62.6958   -8.9106  -10.8770 N   0  0  0  0  0  0  0  0  0  0  0  0
   61.5327   -8.2239  -10.4221 C   0  0  0  0  0  0  0  0  0  0  0  0
   60.8337   -8.6724   -9.5102 O   0  0  0  0  0  0  0  0  0  0  0  0
   61.4143   -7.0172  -11.2203 C   0  0  0  0  0  0  0  0  0  0  0  0
   60.5222   -5.9656  -11.2498 C   0  0  0  0  0  0  0  0  0  0  0  0
   59.3799   -5.6677  -10.5374 C   0  0  0  0  0  0  0  0  0  0  0  0
   58.7035   -6.2885   -9.5261 C   0  0  0  0  0  0  0  0  0  0  0  0
   57.5492   -5.6882   -9.0245 C   0  0  0  0  0  0  0  0  0  0  0  0
   57.0609   -4.4933   -9.5063 C   0  0  0  0  0  0  0  0  0  0  0  0
   57.7455   -3.8682  -10.5278 C   0  0  0  0  0  0  0  0  0  0  0  0
   58.8700   -4.4523  -11.0170 C   0  0  0  0  0  0  0  0  0  0  0  0
   59.6874   -4.0394  -11.9877 N   0  0  0  0  0  0  0  0  0  0  0  0
   60.6787   -4.9213  -12.1437 C   0  0  0  0  0  0  0  0  0  0  0  0
   61.7307   -4.8871  -13.0389 C   0  0  0  0  0  0  0  0  0  0  0  0
   63.0712   -9.8267  -10.4918 H   0  0  0  0  0  0  0  0  0  0  0  0
   58.0261   -4.7456  -16.6851 C   0  0  0  0  0  0  0  0  0  0  0  0
   59.0945   -4.6430  -15.7128 N   0  0  0  0  0  0  0  0  0  0  0  0
   59.9703   -4.8807  -16.1871 H   0  0  0  0  0  0  0  0  0  0  0  0
   60.8956   -3.2136  -16.5884 O   0  0  0  0  0  0  0  0  0  0  0  0
   60.0663   -4.1326  -17.1676 C   0  0  0  0  0  0  0  0  0  0  0  0
 33 34  1  0  0  0
 34  1  1  0  0  0
  1  2  1  0  0  0
  2  3  1  0  0  0
  3  4  1  0  0  0
  4  5  1  0  0  0
  5  6  1  0  0  0
  5  7  1  0  0  0
  7 36  1  0  0  0
 36 37  1  0  0  0
  5  8  1  0  0  0
  8  9  1  0  0  0
  9 10  2  0  0  0
 10 11  1  0  0  0
 11 12  2  0  0  0
 12 13  1  0  0  0
 13 14  2  0  0  0
 14 15  1  0  0  0
 15 16  2  0  0  0
 16 17  1  0  0  0
 17 18  1  0  0  0
 18 19  1  0  0  0
 19 20  2  0  0  0
 19 21  1  0  0  0
 21 22  2  0  0  0
 22 23  1  0  0  0
 23 24  2  0  0  0
 24 25  1  0  0  0
 25 26  2  0  0  0
 26 27  1  0  0  0
 27 28  2  0  0  0
 28 29  1  0  0  0
 29 30  1  0  0  0
 30 31  2  0  0  0
  7  1  1  0  0  0
 31  8  1  0  0  0
 29  3  1  0  0  0
 14  9  1  0  0  0
 31 15  1  0  0  0
 21 16  1  0  0  0
 30 22  1  0  0  0
 28 23  1  0  0  0
 34 35  1  0  0  0
 18 32  1  0  0  0
M  END
> <minimizedAffinity>
4.87122

> <CNNscore>
0.4159048796

> <CNNaffinity>
5.0103044510

> <CNN_VS>
2.0838100910

> <CNNaffinity_variance>
0.2926441133

$$$$
[H]c1c([H])c([H])c2c(c1[H])c1c3c(c4c5c([H])c([H])c([H])c([H])c5n5c4c1n2[C@@]1([H])O[C@]5(C([H])([H])[H])[C@@]([H])(OC([H])([H])[H])[C@@]([H])(N([H])C([H])([H])[H])C1([H])[H])C([H])([H])N([H])C3=O


 37 44  0  0  0  0  0  0  0  0999 V2000
   54.9108   -5.7017   -2.8189 C   0  0  0  0  0  0  0  0  0  0  0  0
   53.4530   -5.8765   -2.7020 C   0  0  0  0  0  0  0  0  0  0  0  0
   52.8096   -6.6261   -3.8223 C   0  0  0  0  0  0  0  0  0  0  0  0
   53.5531   -7.2902   -4.6658 O   0  0  0  0  0  0  0  0  0  0  0  0
   54.8213   -6.9179   -5.0478 C   0  0  0  0  0  0  0  0  0  0  0  0
   55.3580   -8.2524   -5.6057 C   0  0  0  0  0  0  0  0  0  0  0  0
   55.5958   -6.5538   -3.8636 C   0  0  0  0  0  0  0  0  0  0  0  0
   54.7105   -5.9254   -6.1038 N   0  0  0  0  0  0  0  0  0  0  0  0
   55.5883   -5.6330   -7.0687 C   0  0  0  0  0  0  0  0  0  0  0  0
   56.8314   -6.1145   -7.3518 C   0  0  0  0  0  0  0  0  0  0  0  0
   57.5439   -5.6250   -8.4363 C   0  0  0  0  0  0  0  0  0  0  0  0
   57.0511   -4.6500   -9.2688 C   0  0  0  0  0  0  0  0  0  0  0  0
   55.7786   -4.1474   -8.9902 C   0  0  0  0  0  0  0  0  0  0  0  0
   55.0958   -4.6520   -7.9081 C   0  0  0  0  0  0  0  0  0  0  0  0
   53.8411   -4.3242   -7.4261 C   0  0  0  0  0  0  0  0  0  0  0  0
   52.8655   -3.4278   -7.8396 C   0  0  0  0  0  0  0  0  0  0  0  0
   52.8881   -2.4801   -8.9950 C   0  0  0  0  0  0  0  0  0  0  0  0
   51.6189   -1.8116   -8.9686 N   0  0  0  0  0  0  0  0  0  0  0  0
   50.8550   -2.2806   -7.8606 C   0  0  0  0  0  0  0  0  0  0  0  0
   49.7281   -1.8400   -7.6208 O   0  0  0  0  0  0  0  0  0  0  0  0
   51.6600   -3.2819   -7.1848 C   0  0  0  0  0  0  0  0  0  0  0  0
   51.4708   -4.0837   -6.0786 C   0  0  0  0  0  0  0  0  0  0  0  0
   50.4413   -4.2263   -5.1725 C   0  0  0  0  0  0  0  0  0  0  0  0
   49.2151   -3.6415   -5.0300 C   0  0  0  0  0  0  0  0  0  0  0  0
   48.4034   -4.0371   -3.9675 C   0  0  0  0  0  0  0  0  0  0  0  0
   48.7860   -4.9946   -3.0536 C   0  0  0  0  0  0  0  0  0  0  0  0
   50.0249   -5.5837   -3.1994 C   0  0  0  0  0  0  0  0  0  0  0  0
   50.8162   -5.1988   -4.2341 C   0  0  0  0  0  0  0  0  0  0  0  0
   52.0351   -5.6227   -4.5737 N   0  0  0  0  0  0  0  0  0  0  0  0
   52.4453   -4.9760   -5.6684 C   0  0  0  0  0  0  0  0  0  0  0  0
   53.6424   -5.1020   -6.3470 C   0  0  0  0  0  0  0  0  0  0  0  0
   51.3111   -1.0804   -9.6750 H   0  0  0  0  0  0  0  0  0  0  0  0
   56.4249   -4.0266   -2.2100 C   0  0  0  0  0  0  0  0  0  0  0  0
   55.2819   -4.3005   -3.0563 N   0  0  0  0  0  0  0  0  0  0  0  0
   55.5616   -4.1193   -4.0245 H   0  0  0  0  0  0  0  0  0  0  0  0
   56.8242   -5.9395   -4.0509 O   0  0  0  0  0  0  0  0  0  0  0  0
   57.9200   -6.7202   -3.8112 C   0  0  0  0  0  0  0  0  0  0  0  0
 33 34  1  0  0  0
 34  1  1  0  0  0
  1  2  1  0  0  0
  2  3  1  0  0  0
  3  4  1  0  0  0
  4  5  1  0  0  0
  5  6  1  0  0  0
  5  7  1  0  0  0
  7 36  1  0  0  0
 36 37  1  0  0  0
  5  8  1  0  0  0
  8  9  1  0  0  0
  9 10  2  0  0  0
 10 11  1  0  0  0
 11 12  2  0  0  0
 12 13  1  0  0  0
 13 14  2  0  0  0
 14 15  1  0  0  0
 15 16  2  0  0  0
 16 17  1  0  0  0
 17 18  1  0  0  0
 18 19  1  0  0  0
 19 20  2  0  0  0
 19 21  1  0  0  0
 21 22  2  0  0  0
 22 23  1  0  0  0
 23 24  2  0  0  0
 24 25  1  0  0  0
 25 26  2  0  0  0
 26 27  1  0  0  0
 27 28  2  0  0  0
 28 29  1  0  0  0
 29 30  1  0  0  0
 30 31  2  0  0  0
  7  1  1  0  0  0
 31  8  1  0  0  0
 29  3  1  0  0  0
 14  9  1  0  0  0
 31 15  1  0  0  0
 21 16  1  0  0  0
 30 22  1  0  0  0
 28 23  1  0  0  0
 34 35  1  0  0  0
 18 32  1  0  0  0
M  END
> <minimizedAffinity>
-8.13500

> <CNNscore>
0.3980872929

> <CNNaffinity>
7.0082359314

> <CNN_VS>
2.7898895741

> <CNNaffinity_variance>
0.1615880132

$$$$
[H]c1c([H])c([H])c2c(c1[H])c1c3c(c4c5c([H])c([H])c([H])c([H])c5n5c4c1n2[C@@]1([H])O[C@]5(C([H])([H])[H])[C@@]([H])(OC([H])([H])[H])[C@@]([H])(N([H])C([H])([H])[H])C1([H])[H])C([H])([H])N([H])C3=O


 37 44  0  0  0  0  0  0  0  0999 V2000
   60.6014   -1.9259  -14.5115 C   0  0  0  0  0  0  0  0  0  0  0  0
   61.4130   -2.7160  -15.4530 C   0  0  0  0  0  0  0  0  0  0  0  0
   61.0233   -4.1522  -15.5800 C   0  0  0  0  0  0  0  0  0  0  0  0
   59.8820   -4.5572  -15.0915 O   0  0  0  0  0  0  0  0  0  0  0  0
   59.2820   -4.0291  -13.9716 C   0  0  0  0  0  0  0  0  0  0  0  0
   57.8290   -4.5085  -14.1695 C   0  0  0  0  0  0  0  0  0  0  0  0
   59.3141   -2.5704  -14.0483 C   0  0  0  0  0  0  0  0  0  0  0  0
   59.8737   -4.6487  -12.7976 N   0  0  0  0  0  0  0  0  0  0  0  0
   59.3381   -4.8175  -11.5845 C   0  0  0  0  0  0  0  0  0  0  0  0
   58.1358   -4.4532  -11.0561 C   0  0  0  0  0  0  0  0  0  0  0  0
   57.8267   -4.7572   -9.7387 C   0  0  0  0  0  0  0  0  0  0  0  0
   58.6926   -5.4268   -8.9089 C   0  0  0  0  0  0  0  0  0  0  0  0
   59.9282   -5.8057   -9.4372 C   0  0  0  0  0  0  0  0  0  0  0  0
   60.2067   -5.4907  -10.7468 C   0  0  0  0  0  0  0  0  0  0  0  0
   61.3428   -5.7479  -11.4932 C   0  0  0  0  0  0  0  0  0  0  0  0
   62.5415   -6.3897  -11.2142 C   0  0  0  0  0  0  0  0  0  0  0  0
   62.9949   -7.0220   -9.9382 C   0  0  0  0  0  0  0  0  0  0  0  0
   64.2998   -7.5508  -10.2138 N   0  0  0  0  0  0  0  0  0  0  0  0
   64.6615   -7.2527  -11.5598 C   0  0  0  0  0  0  0  0  0  0  0  0
   65.7509   -7.5948  -12.0262 O   0  0  0  0  0  0  0  0  0  0  0  0
   63.5466   -6.5330  -12.1483 C   0  0  0  0  0  0  0  0  0  0  0  0
   63.2970   -5.9954  -13.3938 C   0  0  0  0  0  0  0  0  0  0  0  0
   64.0281   -5.9194  -14.5603 C   0  0  0  0  0  0  0  0  0  0  0  0
   65.2675   -6.3557  -14.9334 C   0  0  0  0  0  0  0  0  0  0  0  0
   65.7047   -6.1008  -16.2327 C   0  0  0  0  0  0  0  0  0  0  0  0
   64.9384   -5.4264  -17.1581 C   0  0  0  0  0  0  0  0  0  0  0  0
   63.6870   -4.9866  -16.7791 C   0  0  0  0  0  0  0  0  0  0  0  0
   63.2604   -5.2344  -15.5136 C   0  0  0  0  0  0  0  0  0  0  0  0
   62.1047   -4.9126  -14.9292 N   0  0  0  0  0  0  0  0  0  0  0  0
   62.1015   -5.3558  -13.6689 C   0  0  0  0  0  0  0  0  0  0  0  0
   61.1116   -5.2306  -12.7130 C   0  0  0  0  0  0  0  0  0  0  0  0
   64.8931   -8.0813   -9.5103 H   0  0  0  0  0  0  0  0  0  0  0  0
   60.4545   -1.6008  -12.2003 C   0  0  0  0  0  0  0  0  0  0  0  0
   61.3664   -1.5262  -13.3230 N   0  0  0  0  0  0  0  0  0  0  0  0
   62.1540   -2.1502  -13.1257 H   0  0  0  0  0  0  0  0  0  0  0  0
   58.9611   -1.8497  -12.9180 O   0  0  0  0  0  0  0  0  0  0  0  0
   57.7980   -2.2321  -12.3107 C   0  0  0  0  0  0  0  0  0  0  0  0
 33 34  1  0  0  0
 34  1  1  0  0  0
  1  2  1  0  0  0
  2  3  1  0  0  0
  3  4  1  0  0  0
  4  5  1  0  0  0
  5  6  1  0  0  0
  5  7  1  0  0  0
  7 36  1  0  0  0
 36 37  1  0  0  0
  5  8  1  0  0  0
  8  9  1  0  0  0
  9 10  2  0  0  0
 10 11  1  0  0  0
 11 12  2  0  0  0
 12 13  1  0  0  0
 13 14  2  0  0  0
 14 15  1  0  0  0
 15 16  2  0  0  0
 16 17  1  0  0  0
 17 18  1  0  0  0
 18 19  1  0  0  0
 19 20  2  0  0  0
 19 21  1  0  0  0
 21 22  2  0  0  0
 22 23  1  0  0  0
 23 24  2  0  0  0
 24 25  1  0  0  0
 25 26  2  0  0  0
 26 27  1  0  0  0
 27 28  2  0  0  0
 28 29  1  0  0  0
 29 30  1  0  0  0
 30 31  2  0  0  0
  7  1  1  0  0  0
 31  8  1  0  0  0
 29  3  1  0  0  0
 14  9  1  0  0  0
 31 15  1  0  0  0
 21 16  1  0  0  0
 30 22  1  0  0  0
 28 23  1  0  0  0
 34 35  1  0  0  0
 18 32  1  0  0  0
M  END
> <minimizedAffinity>
13.16238

> <CNNscore>
0.3019848466

> <CNNaffinity>
4.6616044044

> <CNN_VS>
1.4077339172

> <CNNaffinity_variance>
0.4619131982

$$$$
[H]c1c([H])c([H])c2c(c1[H])c1c3c(c4c5c([H])c([H])c([H])c([H])c5n5c4c1n2[C@@]1([H])O[C@]5(C([H])([H])[H])[C@@]([H])(OC([H])([H])[H])[C@@]([H])(N([H])C([H])([H])[H])C1([H])[H])C([H])([H])N([H])C3=O


 37 44  0  0  0  0  0  0  0  0999 V2000
   51.9934   -2.3422   -8.6602 C   0  0  0  0  0  0  0  0  0  0  0  0
   52.7679   -2.8126   -9.8213 C   0  0  0  0  0  0  0  0  0  0  0  0
   52.8829   -4.2961   -9.9514 C   0  0  0  0  0  0  0  0  0  0  0  0
   52.1131   -5.0689   -9.2336 O   0  0  0  0  0  0  0  0  0  0  0  0
   51.6653   -4.7650   -7.9687 C   0  0  0  0  0  0  0  0  0  0  0  0
   50.4689   -5.7313   -7.8462 C   0  0  0  0  0  0  0  0  0  0  0  0
   51.1685   -3.3911   -7.9486 C   0  0  0  0  0  0  0  0  0  0  0  0
   52.7072   -5.1117   -7.0166 N   0  0  0  0  0  0  0  0  0  0  0  0
   52.5829   -5.4349   -5.7254 C   0  0  0  0  0  0  0  0  0  0  0  0
   51.5006   -5.5091   -4.9006 C   0  0  0  0  0  0  0  0  0  0  0  0
   51.6540   -5.8765   -3.5720 C   0  0  0  0  0  0  0  0  0  0  0  0
   52.8757   -6.1798   -3.0224 C   0  0  0  0  0  0  0  0  0  0  0  0
   53.9933   -6.1074   -3.8561 C   0  0  0  0  0  0  0  0  0  0  0  0
   53.8104   -5.7403   -5.1690 C   0  0  0  0  0  0  0  0  0  0  0  0
   54.7416   -5.5938   -6.1816 C   0  0  0  0  0  0  0  0  0  0  0  0
   56.1177   -5.7642   -6.2430 C   0  0  0  0  0  0  0  0  0  0  0  0
   57.0643   -6.1696   -5.1599 C   0  0  0  0  0  0  0  0  0  0  0  0
   58.3594   -6.2079   -5.7760 N   0  0  0  0  0  0  0  0  0  0  0  0
   58.2485   -5.8279   -7.1452 C   0  0  0  0  0  0  0  0  0  0  0  0
   59.2366   -5.7717   -7.8814 O   0  0  0  0  0  0  0  0  0  0  0  0
   56.8442   -5.5611   -7.3981 C   0  0  0  0  0  0  0  0  0  0  0  0
   56.1224   -5.1716   -8.5070 C   0  0  0  0  0  0  0  0  0  0  0  0
   56.4671   -4.8651   -9.8063 C   0  0  0  0  0  0  0  0  0  0  0  0
   57.6468   -4.8419  -10.4946 C   0  0  0  0  0  0  0  0  0  0  0  0
   57.6307   -4.4747  -11.8397 C   0  0  0  0  0  0  0  0  0  0  0  0
   56.4736   -4.1337  -12.5054 C   0  0  0  0  0  0  0  0  0  0  0  0
   55.2835   -4.1576  -11.8082 C   0  0  0  0  0  0  0  0  0  0  0  0
   55.2983   -4.5151  -10.4979 C   0  0  0  0  0  0  0  0  0  0  0  0
   54.2867   -4.6115   -9.6330 N   0  0  0  0  0  0  0  0  0  0  0  0
   54.7508   -5.0020   -8.4427 C   0  0  0  0  0  0  0  0  0  0  0  0
   54.0497   -5.2161   -7.2714 C   0  0  0  0  0  0  0  0  0  0  0  0
   59.2550   -6.4800   -5.2737 H   0  0  0  0  0  0  0  0  0  0  0  0
   54.1369   -1.4861   -8.2840 C   0  0  0  0  0  0  0  0  0  0  0  0
   52.8415   -1.6741   -7.6642 N   0  0  0  0  0  0  0  0  0  0  0  0
   52.4896   -0.7514   -7.3934 H   0  0  0  0  0  0  0  0  0  0  0  0
   50.8797   -2.8196   -6.7192 O   0  0  0  0  0  0  0  0  0  0  0  0
   49.5520   -2.6573   -6.4384 C   0  0  0  0  0  0  0  0  0  0  0  0
 33 34  1  0  0  0
 34  1  1  0  0  0
  1  2  1  0  0  0
  2  3  1  0  0  0
  3  4  1  0  0  0
  4  5  1  0  0  0
  5  6  1  0  0  0
  5  7  1  0  0  0
  7 36  1  0  0  0
 36 37  1  0  0  0
  5  8  1  0  0  0
  8  9  1  0  0  0
  9 10  2  0  0  0
 10 11  1  0  0  0
 11 12  2  0  0  0
 12 13  1  0  0  0
 13 14  2  0  0  0
 14 15  1  0  0  0
 15 16  2  0  0  0
 16 17  1  0  0  0
 17 18  1  0  0  0
 18 19  1  0  0  0
 19 20  2  0  0  0
 19 21  1  0  0  0
 21 22  2  0  0  0
 22 23  1  0  0  0
 23 24  2  0  0  0
 24 25  1  0  0  0
 25 26  2  0  0  0
 26 27  1  0  0  0
 27 28  2  0  0  0
 28 29  1  0  0  0
 29 30  1  0  0  0
 30 31  2  0  0  0
  7  1  1  0  0  0
 31  8  1  0  0  0
 29  3  1  0  0  0
 14  9  1  0  0  0
 31 15  1  0  0  0
 21 16  1  0  0  0
 30 22  1  0  0  0
 28 23  1  0  0  0
 34 35  1  0  0  0
 18 32  1  0  0  0
M  END
> <minimizedAffinity>
0.12607

> <CNNscore>
0.3007326424

> <CNNaffinity>
6.8448729515

> <CNN_VS>
2.0584766865

> <CNNaffinity_variance>
0.2382255346

$$$$
[H]c1c([H])c([H])c2c(c1[H])c1c3c(c4c5c([H])c([H])c([H])c([H])c5n5c4c1n2[C@@]1([H])O[C@]5(C([H])([H])[H])[C@@]([H])(OC([H])([H])[H])[C@@]([H])(N([H])C([H])([H])[H])C1([H])[H])C([H])([H])N([H])C3=O


 37 44  0  0  0  0  0  0  0  0999 V2000
   55.4366   -5.2688   -1.8038 C   0  0  0  0  0  0  0  0  0  0  0  0
   54.1940   -5.2798   -2.5945 C   0  0  0  0  0  0  0  0  0  0  0  0
   54.0173   -6.4648   -3.4865 C   0  0  0  0  0  0  0  0  0  0  0  0
   54.7882   -7.5078   -3.3349 O   0  0  0  0  0  0  0  0  0  0  0  0
   56.0980   -7.4550   -2.9168 C   0  0  0  0  0  0  0  0  0  0  0  0
   56.3137   -8.9123   -2.4587 C   0  0  0  0  0  0  0  0  0  0  0  0
   56.1999   -6.5735   -1.7562 C   0  0  0  0  0  0  0  0  0  0  0  0
   56.9346   -7.1465   -4.0645 N   0  0  0  0  0  0  0  0  0  0  0  0
   58.2236   -7.4421   -4.2603 C   0  0  0  0  0  0  0  0  0  0  0  0
   59.1485   -8.0663   -3.4779 C   0  0  0  0  0  0  0  0  0  0  0  0
   60.4463   -8.2465   -3.9326 C   0  0  0  0  0  0  0  0  0  0  0  0
   60.8659   -7.8171   -5.1679 C   0  0  0  0  0  0  0  0  0  0  0  0
   59.9287   -7.1756   -5.9799 C   0  0  0  0  0  0  0  0  0  0  0  0
   58.6493   -7.0112   -5.5023 C   0  0  0  0  0  0  0  0  0  0  0  0
   57.5542   -6.4149   -6.1015 C   0  0  0  0  0  0  0  0  0  0  0  0
   57.3540   -5.8104   -7.3347 C   0  0  0  0  0  0  0  0  0  0  0  0
   58.3290   -5.5987   -8.4475 C   0  0  0  0  0  0  0  0  0  0  0  0
   57.5882   -4.9459   -9.4885 N   0  0  0  0  0  0  0  0  0  0  0  0
   56.2461   -4.7334   -9.0584 C   0  0  0  0  0  0  0  0  0  0  0  0
   55.4181   -4.1727   -9.7806 O   0  0  0  0  0  0  0  0  0  0  0  0
   56.1386   -5.2830   -7.7191 C   0  0  0  0  0  0  0  0  0  0  0  0
   55.1156   -5.3864   -6.7998 C   0  0  0  0  0  0  0  0  0  0  0  0
   53.7965   -4.9850   -6.7960 C   0  0  0  0  0  0  0  0  0  0  0  0
   52.9967   -4.3461   -7.7003 C   0  0  0  0  0  0  0  0  0  0  0  0
   51.6689   -4.0918   -7.3585 C   0  0  0  0  0  0  0  0  0  0  0  0
   51.1283   -4.4583   -6.1454 C   0  0  0  0  0  0  0  0  0  0  0  0
   51.9380   -5.1032   -5.2335 C   0  0  0  0  0  0  0  0  0  0  0  0
   53.2315   -5.3513   -5.5657 C   0  0  0  0  0  0  0  0  0  0  0  0
   54.1889   -5.9541   -4.8580 N   0  0  0  0  0  0  0  0  0  0  0  0
   55.3181   -5.9891   -5.5710 C   0  0  0  0  0  0  0  0  0  0  0  0
   56.5470   -6.5114   -5.2154 C   0  0  0  0  0  0  0  0  0  0  0  0
   57.9935   -4.6696  -10.4307 H   0  0  0  0  0  0  0  0  0  0  0  0
   55.9058   -3.7814   -3.5463 C   0  0  0  0  0  0  0  0  0  0  0  0
   56.3605   -4.2140   -2.2411 N   0  0  0  0  0  0  0  0  0  0  0  0
   56.3559   -3.3970   -1.6238 H   0  0  0  0  0  0  0  0  0  0  0  0
   57.4652   -6.2109   -1.3213 O   0  0  0  0  0  0  0  0  0  0  0  0
   57.7652   -6.5413   -0.0295 C   0  0  0  0  0  0  0  0  0  0  0  0
 33 34  1  0  0  0
 34  1  1  0  0  0
  1  2  1  0  0  0
  2  3  1  0  0  0
  3  4  1  0  0  0
  4  5  1  0  0  0
  5  6  1  0  0  0
  5  7  1  0  0  0
  7 36  1  0  0  0
 36 37  1  0  0  0
  5  8  1  0  0  0
  8  9  1  0  0  0
  9 10  2  0  0  0
 10 11  1  0  0  0
 11 12  2  0  0  0
 12 13  1  0  0  0
 13 14  2  0  0  0
 14 15  1  0  0  0
 15 16  2  0  0  0
 16 17  1  0  0  0
 17 18  1  0  0  0
 18 19  1  0  0  0
 19 20  2  0  0  0
 19 21  1  0  0  0
 21 22  2  0  0  0
 22 23  1  0  0  0
 23 24  2  0  0  0
 24 25  1  0  0  0
 25 26  2  0  0  0
 26 27  1  0  0  0
 27 28  2  0  0  0
 28 29  1  0  0  0
 29 30  1  0  0  0
 30 31  2  0  0  0
  7  1  1  0  0  0
 31  8  1  0  0  0
 29  3  1  0  0  0
 14  9  1  0  0  0
 31 15  1  0  0  0
 21 16  1  0  0  0
 30 22  1  0  0  0
 28 23  1  0  0  0
 34 35  1  0  0  0
 18 32  1  0  0  0
M  END
> <minimizedAffinity>
-3.35757

> <CNNscore>
0.2815191746

> <CNNaffinity>
6.3502979279

> <CNN_VS>
1.7877305746

> <CNNaffinity_variance>
0.3266600072

$$$$
[H]c1c([H])c([H])c2c(c1[H])c1c3c(c4c5c([H])c([H])c([H])c([H])c5n5c4c1n2[C@@]1([H])O[C@]5(C([H])([H])[H])[C@@]([H])(OC([H])([H])[H])[C@@]([H])(N([H])C([H])([H])[H])C1([H])[H])C([H])([H])N([H])C3=O


 37 44  0  0  0  0  0  0  0  0999 V2000
   59.5801   -2.5101  -17.3965 C   0  0  0  0  0  0  0  0  0  0  0  0
   60.6001   -3.5446  -17.6389 C   0  0  0  0  0  0  0  0  0  0  0  0
   60.2162   -4.9270  -17.2236 C   0  0  0  0  0  0  0  0  0  0  0  0
   58.9706   -5.1921  -16.9350 O   0  0  0  0  0  0  0  0  0  0  0  0
   58.0941   -4.2959  -16.3679 C   0  0  0  0  0  0  0  0  0  0  0  0
   56.7428   -4.9521  -16.7192 C   0  0  0  0  0  0  0  0  0  0  0  0
   58.1940   -3.0153  -17.0640 C   0  0  0  0  0  0  0  0  0  0  0  0
   58.3067   -4.2922  -14.9301 N   0  0  0  0  0  0  0  0  0  0  0  0
   57.4427   -3.9759  -13.9603 C   0  0  0  0  0  0  0  0  0  0  0  0
   56.1523   -3.5387  -13.9909 C   0  0  0  0  0  0  0  0  0  0  0  0
   55.4713   -3.2772  -12.8113 C   0  0  0  0  0  0  0  0  0  0  0  0
   56.0429   -3.4393  -11.5730 C   0  0  0  0  0  0  0  0  0  0  0  0
   57.3648   -3.8864  -11.5269 C   0  0  0  0  0  0  0  0  0  0  0  0
   58.0147   -4.1375  -12.7128 C   0  0  0  0  0  0  0  0  0  0  0  0
   59.3073   -4.5784  -12.9339 C   0  0  0  0  0  0  0  0  0  0  0  0
   60.3555   -4.9191  -12.0903 C   0  0  0  0  0  0  0  0  0  0  0  0
   60.4061   -4.8965  -10.5968 C   0  0  0  0  0  0  0  0  0  0  0  0
   61.7176   -5.3632  -10.2496 N   0  0  0  0  0  0  0  0  0  0  0  0
   62.4570   -5.6371  -11.4369 C   0  0  0  0  0  0  0  0  0  0  0  0
   63.6224   -6.0387  -11.3932 O   0  0  0  0  0  0  0  0  0  0  0  0
   61.5797   -5.3507  -12.5575 C   0  0  0  0  0  0  0  0  0  0  0  0
   61.7126   -5.4257  -13.9283 C   0  0  0  0  0  0  0  0  0  0  0  0
   62.7475   -5.7865  -14.7649 C   0  0  0  0  0  0  0  0  0  0  0  0
   64.0270   -6.2181  -14.5595 C   0  0  0  0  0  0  0  0  0  0  0  0
   64.8240   -6.5036  -15.6675 C   0  0  0  0  0  0  0  0  0  0  0  0
   64.3751   -6.3685  -16.9631 C   0  0  0  0  0  0  0  0  0  0  0  0
   63.0826   -5.9322  -17.1682 C   0  0  0  0  0  0  0  0  0  0  0  0
   62.3056   -5.6540  -16.0894 C   0  0  0  0  0  0  0  0  0  0  0  0
   61.0424   -5.2264  -16.0408 N   0  0  0  0  0  0  0  0  0  0  0  0
   60.6661   -5.0849  -14.7668 C   0  0  0  0  0  0  0  0  0  0  0  0
   59.4497   -4.6586  -14.2689 C   0  0  0  0  0  0  0  0  0  0  0  0
   62.0686   -5.4809   -9.2539 H   0  0  0  0  0  0  0  0  0  0  0  0
   61.4211   -1.4035  -16.4717 C   0  0  0  0  0  0  0  0  0  0  0  0
   59.9877   -1.5676  -16.3462 N   0  0  0  0  0  0  0  0  0  0  0  0
   59.5588   -0.6435  -16.4495 H   0  0  0  0  0  0  0  0  0  0  0  0
   57.5574   -1.9177  -16.5057 O   0  0  0  0  0  0  0  0  0  0  0  0
   56.9156   -1.0933  -17.3868 C   0  0  0  0  0  0  0  0  0  0  0  0
 33 34  1  0  0  0
 34  1  1  0  0  0
  1  2  1  0  0  0
  2  3  1  0  0  0
  3  4  1  0  0  0
  4  5  1  0  0  0
  5  6  1  0  0  0
  5  7  1  0  0  0
  7 36  1  0  0  0
 36 37  1  0  0  0
  5  8  1  0  0  0
  8  9  1  0  0  0
  9 10  2  0  0  0
 10 11  1  0  0  0
 11 12  2  0  0  0
 12 13  1  0  0  0
 13 14  2  0  0  0
 14 15  1  0  0  0
 15 16  2  0  0  0
 16 17  1  0  0  0
 17 18  1  0  0  0
 18 19  1  0  0  0
 19 20  2  0  0  0
 19 21  1  0  0  0
 21 22  2  0  0  0
 22 23  1  0  0  0
 23 24  2  0  0  0
 24 25  1  0  0  0
 25 26  2  0  0  0
 26 27  1  0  0  0
 27 28  2  0  0  0
 28 29  1  0  0  0
 29 30  1  0  0  0
 30 31  2  0  0  0
  7  1  1  0  0  0
 31  8  1  0  0  0
 29  3  1  0  0  0
 14  9  1  0  0  0
 31 15  1  0  0  0
 21 16  1  0  0  0
 30 22  1  0  0  0
 28 23  1  0  0  0
 34 35  1  0  0  0
 18 32  1  0  0  0
M  END
> <minimizedAffinity>
18.80940

> <CNNscore>
0.2731660604

> <CNNaffinity>
4.8439145088

> <CNN_VS>
1.3231930733

> <CNNaffinity_variance>
0.2964988649

$$$$
[H]c1c([H])c([H])c2c(c1[H])c1c3c(c4c5c([H])c([H])c([H])c([H])c5n5c4c1n2[C@@]1([H])O[C@]5(C([H])([H])[H])[C@@]([H])(OC([H])([H])[H])[C@@]([H])(N([H])C([H])([H])[H])C1([H])[H])C([H])([H])N([H])C3=O


 37 44  0  0  0  0  0  0  0  0999 V2000
   52.1900   -3.2904   -8.6246 C   0  0  0  0  0  0  0  0  0  0  0  0
   53.3975   -3.9702   -9.1237 C   0  0  0  0  0  0  0  0  0  0  0  0
   53.5198   -5.4100   -8.7458 C   0  0  0  0  0  0  0  0  0  0  0  0
   52.4864   -6.0385   -8.2535 O   0  0  0  0  0  0  0  0  0  0  0  0
   51.5173   -5.4525   -7.4722 C   0  0  0  0  0  0  0  0  0  0  0  0
   50.3724   -6.4766   -7.6161 C   0  0  0  0  0  0  0  0  0  0  0  0
   51.1033   -4.1905   -8.0808 C   0  0  0  0  0  0  0  0  0  0  0  0
   51.9979   -5.4063   -6.1013 N   0  0  0  0  0  0  0  0  0  0  0  0
   51.2875   -5.3758   -4.9693 C   0  0  0  0  0  0  0  0  0  0  0  0
   49.9461   -5.3428   -4.7312 C   0  0  0  0  0  0  0  0  0  0  0  0
   49.4641   -5.3132   -3.4310 C   0  0  0  0  0  0  0  0  0  0  0  0
   50.2899   -5.3153   -2.3334 C   0  0  0  0  0  0  0  0  0  0  0  0
   51.6667   -5.3486   -2.5628 C   0  0  0  0  0  0  0  0  0  0  0  0
   52.1152   -5.3775   -3.8628 C   0  0  0  0  0  0  0  0  0  0  0  0
   53.4103   -5.4099   -4.3483 C   0  0  0  0  0  0  0  0  0  0  0  0
   54.6567   -5.4348   -3.7380 C   0  0  0  0  0  0  0  0  0  0  0  0
   54.9910   -5.4195   -2.2814 C   0  0  0  0  0  0  0  0  0  0  0  0
   56.4229   -5.4790   -2.2152 N   0  0  0  0  0  0  0  0  0  0  0  0
   56.9616   -5.5030   -3.5345 C   0  0  0  0  0  0  0  0  0  0  0  0
   58.1782   -5.5396   -3.7344 O   0  0  0  0  0  0  0  0  0  0  0  0
   55.8367   -5.4751   -4.4516 C   0  0  0  0  0  0  0  0  0  0  0  0
   55.7135   -5.4873   -5.8254 C   0  0  0  0  0  0  0  0  0  0  0  0
   56.6230   -5.5112   -6.8613 C   0  0  0  0  0  0  0  0  0  0  0  0
   57.9870   -5.5447   -6.9256 C   0  0  0  0  0  0  0  0  0  0  0  0
   58.5986   -5.5637   -8.1787 C   0  0  0  0  0  0  0  0  0  0  0  0
   57.8844   -5.5500   -9.3568 C   0  0  0  0  0  0  0  0  0  0  0  0
   56.5069   -5.5159   -9.2894 C   0  0  0  0  0  0  0  0  0  0  0  0
   55.9105   -5.4974   -8.0693 C   0  0  0  0  0  0  0  0  0  0  0  0
   54.6129   -5.4665   -7.7592 N   0  0  0  0  0  0  0  0  0  0  0  0
   54.4698   -5.4619   -6.4310 C   0  0  0  0  0  0  0  0  0  0  0  0
   53.3047   -5.4248   -5.6890 C   0  0  0  0  0  0  0  0  0  0  0  0
   56.9814   -5.5010   -1.3118 H   0  0  0  0  0  0  0  0  0  0  0  0
   53.6440   -1.5372   -8.0940 C   0  0  0  0  0  0  0  0  0  0  0  0
   52.5053   -2.2844   -7.6016 N   0  0  0  0  0  0  0  0  0  0  0  0
   51.7418   -1.6203   -7.4450 H   0  0  0  0  0  0  0  0  0  0  0  0
   50.2988   -3.3407   -7.3376 O   0  0  0  0  0  0  0  0  0  0  0  0
   49.0416   -3.1323   -7.8315 C   0  0  0  0  0  0  0  0  0  0  0  0
 33 34  1  0  0  0
 34  1  1  0  0  0
  1  2  1  0  0  0
  2  3  1  0  0  0
  3  4  1  0  0  0
  4  5  1  0  0  0
  5  6  1  0  0  0
  5  7  1  0  0  0
  7 36  1  0  0  0
 36 37  1  0  0  0
  5  8  1  0  0  0
  8  9  1  0  0  0
  9 10  2  0  0  0
 10 11  1  0  0  0
 11 12  2  0  0  0
 12 13  1  0  0  0
 13 14  2  0  0  0
 14 15  1  0  0  0
 15 16  2  0  0  0
 16 17  1  0  0  0
 17 18  1  0  0  0
 18 19  1  0  0  0
 19 20  2  0  0  0
 19 21  1  0  0  0
 21 22  2  0  0  0
 22 23  1  0  0  0
 23 24  2  0  0  0
 24 25  1  0  0  0
 25 26  2  0  0  0
 26 27  1  0  0  0
 27 28  2  0  0  0
 28 29  1  0  0  0
 29 30  1  0  0  0
 30 31  2  0  0  0
  7  1  1  0  0  0
 31  8  1  0  0  0
 29  3  1  0  0  0
 14  9  1  0  0  0
 31 15  1  0  0  0
 21 16  1  0  0  0
 30 22  1  0  0  0
 28 23  1  0  0  0
 34 35  1  0  0  0
 18 32  1  0  0  0
M  END
> <minimizedAffinity>
-0.93812

> <CNNscore>
0.2604617774

> <CNNaffinity>
6.8171157837

> <CNN_VS>
1.7755980492

> <CNNaffinity_variance>
0.4120121002

$$$$
[H]c1c([H])c([H])c2c(c1[H])c1c3c(c4c5c([H])c([H])c([H])c([H])c5n5c4c1n2[C@@]1([H])O[C@]5(C([H])([H])[H])[C@@]([H])(OC([H])([H])[H])[C@@]([H])(N([H])C([H])([H])[H])C1([H])[H])C([H])([H])N([H])C3=O


 37 44  0  0  0  0  0  0  0  0999 V2000
   54.3681   -6.9362   -7.1974 C   0  0  0  0  0  0  0  0  0  0  0  0
   54.0560   -5.6029   -7.7401 C   0  0  0  0  0  0  0  0  0  0  0  0
   54.1490   -4.4791   -6.7607 C   0  0  0  0  0  0  0  0  0  0  0  0
   54.7310   -4.6734   -5.6081 O   0  0  0  0  0  0  0  0  0  0  0  0
   54.7203   -5.8651   -4.9205 C   0  0  0  0  0  0  0  0  0  0  0  0
   55.9134   -5.6576   -3.9648 C   0  0  0  0  0  0  0  0  0  0  0  0
   55.0338   -6.9566   -5.8397 C   0  0  0  0  0  0  0  0  0  0  0  0
   53.4746   -5.9557   -4.1773 N   0  0  0  0  0  0  0  0  0  0  0  0
   53.2183   -6.6437   -3.0601 C   0  0  0  0  0  0  0  0  0  0  0  0
   53.9856   -7.4763   -2.3016 C   0  0  0  0  0  0  0  0  0  0  0  0
   53.4605   -8.0754   -1.1663 C   0  0  0  0  0  0  0  0  0  0  0  0
   52.1680   -7.8702   -0.7494 C   0  0  0  0  0  0  0  0  0  0  0  0
   51.3705   -7.0196   -1.5174 C   0  0  0  0  0  0  0  0  0  0  0  0
   51.9184   -6.4398   -2.6379 C   0  0  0  0  0  0  0  0  0  0  0  0
   51.3451   -5.5754   -3.5535 C   0  0  0  0  0  0  0  0  0  0  0  0
   50.0859   -5.0021   -3.6640 C   0  0  0  0  0  0  0  0  0  0  0  0
   48.8950   -5.1701   -2.7768 C   0  0  0  0  0  0  0  0  0  0  0  0
   47.8733   -4.3374   -3.3435 N   0  0  0  0  0  0  0  0  0  0  0  0
   48.3697   -3.7066   -4.5212 C   0  0  0  0  0  0  0  0  0  0  0  0
   47.6652   -2.9500   -5.1940 O   0  0  0  0  0  0  0  0  0  0  0  0
   49.7445   -4.1421   -4.6873 C   0  0  0  0  0  0  0  0  0  0  0  0
   50.7335   -3.8780   -5.6118 C   0  0  0  0  0  0  0  0  0  0  0  0
   50.7863   -3.1064   -6.7533 C   0  0  0  0  0  0  0  0  0  0  0  0
   49.8897   -2.3017   -7.3968 C   0  0  0  0  0  0  0  0  0  0  0  0
   50.2905   -1.6497   -8.5624 C   0  0  0  0  0  0  0  0  0  0  0  0
   51.5548   -1.7828   -9.0936 C   0  0  0  0  0  0  0  0  0  0  0  0
   52.4586   -2.5962   -8.4421 C   0  0  0  0  0  0  0  0  0  0  0  0
   52.0689   -3.2317   -7.3067 C   0  0  0  0  0  0  0  0  0  0  0  0
   52.7593   -4.0550   -6.5152 N   0  0  0  0  0  0  0  0  0  0  0  0
   51.9876   -4.4513   -5.4993 C   0  0  0  0  0  0  0  0  0  0  0  0
   52.3011   -5.3071   -4.4607 C   0  0  0  0  0  0  0  0  0  0  0  0
   46.8997   -4.2202   -2.9350 H   0  0  0  0  0  0  0  0  0  0  0  0
   52.1335   -7.1131   -7.8640 C   0  0  0  0  0  0  0  0  0  0  0  0
   53.1816   -7.8001   -7.1381 N   0  0  0  0  0  0  0  0  0  0  0  0
   53.3259   -8.7092   -7.5867 H   0  0  0  0  0  0  0  0  0  0  0  0
   54.8555   -8.2569   -5.3936 O   0  0  0  0  0  0  0  0  0  0  0  0
   55.6491   -8.6389   -4.3485 C   0  0  0  0  0  0  0  0  0  0  0  0
 33 34  1  0  0  0
 34  1  1  0  0  0
  1  2  1  0  0  0
  2  3  1  0  0  0
  3  4  1  0  0  0
  4  5  1  0  0  0
  5  6  1  0  0  0
  5  7  1  0  0  0
  7 36  1  0  0  0
 36 37  1  0  0  0
  5  8  1  0  0  0
  8  9  1  0  0  0
  9 10  2  0  0  0
 10 11  1  0  0  0
 11 12  2  0  0  0
 12 13  1  0  0  0
 13 14  2  0  0  0
 14 15  1  0  0  0
 15 16  2  0  0  0
 16 17  1  0  0  0
 17 18  1  0  0  0
 18 19  1  0  0  0
 19 20  2  0  0  0
 19 21  1  0  0  0
 21 22  2  0  0  0
 22 23  1  0  0  0
 23 24  2  0  0  0
 24 25  1  0  0  0
 25 26  2  0  0  0
 26 27  1  0  0  0
 27 28  2  0  0  0
 28 29  1  0  0  0
 29 30  1  0  0  0
 30 31  2  0  0  0
  7  1  1  0  0  0
 31  8  1  0  0  0
 29  3  1  0  0  0
 14  9  1  0  0  0
 31 15  1  0  0  0
 21 16  1  0  0  0
 30 22  1  0  0  0
 28 23  1  0  0  0
 34 35  1  0  0  0
 18 32  1  0  0  0
M  END
> <minimizedAffinity>
-1.09604

> <CNNscore>
0.2413456589

> <CNNaffinity>
6.4789018631

> <CNN_VS>
1.5636547804

> <CNNaffinity_variance>
0.1915530264

$$$$
[H]/C(=C1/C(=O)N([H])c2c([H])c([H])c(F)c([H])c21)c1c(C([H])([H])[H])c(C(=O)N([H])C([H])([H])C([H])([H])C([H])([H])N(C([H])([H])[H])C([H])([H])[H])c(C([H])([H])[H])n1[H]


 31 33  0  0  0  0  0  0  0  0999 V2000
   56.8421   -4.8987   -9.4398 C   0  0  0  0  0  0  0  0  0  0  0  0
   56.0420   -4.3184  -10.4241 C   0  0  0  0  0  0  0  0  0  0  0  0
   56.5019   -3.9355  -11.8010 C   0  0  0  0  0  0  0  0  0  0  0  0
   54.7926   -4.1418   -9.9737 N   0  0  0  0  0  0  0  0  0  0  0  0
   54.7664   -4.5955   -8.7223 C   0  0  0  0  0  0  0  0  0  0  0  0
   56.0502   -5.0817   -8.3564 C   0  0  0  0  0  0  0  0  0  0  0  0
   56.3553   -5.6918   -7.0296 C   0  0  0  0  0  0  0  0  0  0  0  0
   53.9767   -3.7100  -10.4999 H   0  0  0  0  0  0  0  0  0  0  0  0
   53.6615   -4.6603   -7.7811 C   0  0  0  0  0  0  0  0  0  0  0  0
   52.6756   -3.8222   -7.8160 C   0  0  0  0  0  0  0  0  0  0  0  0
   52.4083   -2.7144   -8.6963 C   0  0  0  0  0  0  0  0  0  0  0  0
   53.1077   -2.3418   -9.6747 O   0  0  0  0  0  0  0  0  0  0  0  0
   51.1818   -2.0852   -8.2741 N   0  0  0  0  0  0  0  0  0  0  0  0
   50.6962   -2.7946   -7.1488 C   0  0  0  0  0  0  0  0  0  0  0  0
   49.5874   -2.6113   -6.3825 C   0  0  0  0  0  0  0  0  0  0  0  0
   49.3405   -3.4600   -5.3226 C   0  0  0  0  0  0  0  0  0  0  0  0
   50.1930   -4.4991   -5.0136 C   0  0  0  0  0  0  0  0  0  0  0  0
   49.9110   -5.3059   -3.9645 F   0  0  0  0  0  0  0  0  0  0  0  0
   51.3209   -4.6884   -5.7904 C   0  0  0  0  0  0  0  0  0  0  0  0
   51.5587   -3.8368   -6.8455 C   0  0  0  0  0  0  0  0  0  0  0  0
   50.7938   -1.2594   -8.7674 H   0  0  0  0  0  0  0  0  0  0  0  0
   59.0530   -5.7501   -8.6497 N   0  0  0  0  0  0  0  0  0  0  0  0
   58.2235   -5.2476   -9.6500 C   0  0  0  0  0  0  0  0  0  0  0  0
   58.6449   -5.0544  -10.8516 O   0  0  0  0  0  0  0  0  0  0  0  0
   58.5662   -5.8309   -7.6787 H   0  0  0  0  0  0  0  0  0  0  0  0
   60.4139   -6.1314   -8.6519 C   0  0  0  0  0  0  0  0  0  0  0  0
   60.8657   -7.3417   -9.3682 C   0  0  0  0  0  0  0  0  0  0  0  0
   62.0527   -8.0301   -8.8518 C   0  0  0  0  0  0  0  0  0  0  0  0
   61.9047   -9.1464   -6.7040 C   0  0  0  0  0  0  0  0  0  0  0  0
   61.7142   -9.2502   -8.1064 N   0  0  0  0  0  0  0  0  0  0  0  0
   62.1292  -10.4396   -8.7425 C   0  0  0  0  0  0  0  0  0  0  0  0
 29 30  1  0  0  0
 30 31  1  0  0  0
 30 28  1  0  0  0
 28 27  1  0  0  0
 27 26  1  0  0  0
 26 22  1  0  0  0
 22 23  1  0  0  0
 23 24  2  0  0  0
 23  1  1  0  0  0
  1  2  2  0  0  0
  2  3  1  0  0  0
  2  4  1  0  0  0
  4  5  1  0  0  0
  5  9  1  0  0  0
  9 10  2  0  0  0
 10 11  1  0  0  0
 11 12  2  0  0  0
 11 13  1  0  0  0
 13 14  1  0  0  0
 14 15  2  0  0  0
 15 16  1  0  0  0
 16 17  2  0  0  0
 17 18  1  0  0  0
 17 19  1  0  0  0
 19 20  2  0  0  0
  5  6  2  0  0  0
  6  7  1  0  0  0
  6  1  1  0  0  0
 20 10  1  0  0  0
 20 14  1  0  0  0
 22 25  1  0  0  0
  4  8  1  0  0  0
 13 21  1  0  0  0
M  END
> <minimizedAffinity>
-10.38326

> <CNNscore>
0.9649396539

> <CNNaffinity>
7.1827073097

> <CNN_VS>
6.9308791161

> <CNNaffinity_variance>
0.0551537983

$$$$
[H]/C(=C1/C(=O)N([H])c2c([H])c([H])c(F)c([H])c21)c1c(C([H])([H])[H])c(C(=O)N([H])C([H])([H])C([H])([H])C([H])([H])N(C([H])([H])[H])C([H])([H])[H])c(C([H])([H])[H])n1[H]


 31 33  0  0  0  0  0  0  0  0999 V2000
   56.7858   -4.9088   -9.4235 C   0  0  0  0  0  0  0  0  0  0  0  0
   55.9889   -4.3369  -10.4151 C   0  0  0  0  0  0  0  0  0  0  0  0
   56.4545   -3.9599  -11.7918 C   0  0  0  0  0  0  0  0  0  0  0  0
   54.7365   -4.1623   -9.9722 N   0  0  0  0  0  0  0  0  0  0  0  0
   54.7054   -4.6092   -8.7184 C   0  0  0  0  0  0  0  0  0  0  0  0
   55.9890   -5.0887   -8.3432 C   0  0  0  0  0  0  0  0  0  0  0  0
   56.2894   -5.6903   -7.0115 C   0  0  0  0  0  0  0  0  0  0  0  0
   53.9217   -3.7365  -10.5050 H   0  0  0  0  0  0  0  0  0  0  0  0
   53.5958   -4.6728   -7.7826 C   0  0  0  0  0  0  0  0  0  0  0  0
   52.6207   -3.8219   -7.8101 C   0  0  0  0  0  0  0  0  0  0  0  0
   52.3711   -2.6989   -8.6761 C   0  0  0  0  0  0  0  0  0  0  0  0
   53.0793   -2.3218   -9.6465 O   0  0  0  0  0  0  0  0  0  0  0  0
   51.1509   -2.0600   -8.2502 N   0  0  0  0  0  0  0  0  0  0  0  0
   50.6518   -2.7785   -7.1367 C   0  0  0  0  0  0  0  0  0  0  0  0
   49.5422   -2.5916   -6.3724 C   0  0  0  0  0  0  0  0  0  0  0  0
   49.2802   -3.4515   -5.3252 C   0  0  0  0  0  0  0  0  0  0  0  0
   50.1181   -4.5055   -5.0272 C   0  0  0  0  0  0  0  0  0  0  0  0
   49.8216   -5.3229   -3.9903 F   0  0  0  0  0  0  0  0  0  0  0  0
   51.2468   -4.6984   -5.8020 C   0  0  0  0  0  0  0  0  0  0  0  0
   51.4997   -3.8356   -6.8443 C   0  0  0  0  0  0  0  0  0  0  0  0
   50.7755   -1.2227   -8.7337 H   0  0  0  0  0  0  0  0  0  0  0  0
   59.0089   -5.7010   -8.6064 N   0  0  0  0  0  0  0  0  0  0  0  0
   58.1696   -5.2538   -9.6246 C   0  0  0  0  0  0  0  0  0  0  0  0
   58.5832   -5.1129  -10.8361 O   0  0  0  0  0  0  0  0  0  0  0  0
   58.5278   -5.7410   -7.6301 H   0  0  0  0  0  0  0  0  0  0  0  0
   60.3735   -6.0689   -8.5980 C   0  0  0  0  0  0  0  0  0  0  0  0
   60.8922   -7.0960   -9.5244 C   0  0  0  0  0  0  0  0  0  0  0  0
   61.9818   -6.7067  -10.4248 C   0  0  0  0  0  0  0  0  0  0  0  0
   62.6835   -8.9951  -10.8147 C   0  0  0  0  0  0  0  0  0  0  0  0
   62.3077   -7.7576  -11.3987 N   0  0  0  0  0  0  0  0  0  0  0  0
   63.0523   -7.2970  -12.5055 C   0  0  0  0  0  0  0  0  0  0  0  0
 29 30  1  0  0  0
 30 31  1  0  0  0
 30 28  1  0  0  0
 28 27  1  0  0  0
 27 26  1  0  0  0
 26 22  1  0  0  0
 22 23  1  0  0  0
 23 24  2  0  0  0
 23  1  1  0  0  0
  1  2  2  0  0  0
  2  3  1  0  0  0
  2  4  1  0  0  0
  4  5  1  0  0  0
  5  9  1  0  0  0
  9 10  2  0  0  0
 10 11  1  0  0  0
 11 12  2  0  0  0
 11 13  1  0  0  0
 13 14  1  0  0  0
 14 15  2  0  0  0
 15 16  1  0  0  0
 16 17  2  0  0  0
 17 18  1  0  0  0
 17 19  1  0  0  0
 19 20  2  0  0  0
  5  6  2  0  0  0
  6  7  1  0  0  0
  6  1  1  0  0  0
 20 10  1  0  0  0
 20 14  1  0  0  0
 22 25  1  0  0  0
  4  8  1  0  0  0
 13 21  1  0  0  0
M  END
> <minimizedAffinity>
-10.59196

> <CNNscore>
0.9555016756

> <CNNaffinity>
7.1566033363

> <CNN_VS>
6.8381466866

> <CNNaffinity_variance>
0.1056952253

$$$$
[H]/C(=C1/C(=O)N([H])c2c([H])c([H])c(F)c([H])c21)c1c(C([H])([H])[H])c(C(=O)N([H])C([H])([H])C([H])([H])C([H])([H])N(C([H])([H])[H])C([H])([H])[H])c(C([H])([H])[H])n1[H]


 31 33  0  0  0  0  0  0  0  0999 V2000
   56.7862   -4.4701  -10.2357 C   0  0  0  0  0  0  0  0  0  0  0  0
   55.7598   -4.0095  -11.0601 C   0  0  0  0  0  0  0  0  0  0  0  0
   55.9281   -3.5474  -12.4787 C   0  0  0  0  0  0  0  0  0  0  0  0
   54.5877   -4.0302  -10.4115 N   0  0  0  0  0  0  0  0  0  0  0  0
   54.8325   -4.4947   -9.1880 C   0  0  0  0  0  0  0  0  0  0  0  0
   56.2166   -4.7824   -9.0472 C   0  0  0  0  0  0  0  0  0  0  0  0
   56.8202   -5.3515   -7.8072 C   0  0  0  0  0  0  0  0  0  0  0  0
   53.6420   -3.7232  -10.7865 H   0  0  0  0  0  0  0  0  0  0  0  0
   53.9168   -4.7367   -8.0862 C   0  0  0  0  0  0  0  0  0  0  0  0
   52.8484   -4.0278   -7.9089 C   0  0  0  0  0  0  0  0  0  0  0  0
   52.3097   -2.9261   -8.6637 C   0  0  0  0  0  0  0  0  0  0  0  0
   52.7863   -2.4281   -9.7173 O   0  0  0  0  0  0  0  0  0  0  0  0
   51.1069   -2.4736   -8.0102 N   0  0  0  0  0  0  0  0  0  0  0  0
   50.9035   -3.2849   -6.8675 C   0  0  0  0  0  0  0  0  0  0  0  0
   49.9258   -3.2740   -5.9219 C   0  0  0  0  0  0  0  0  0  0  0  0
   49.9613   -4.1908   -4.8908 C   0  0  0  0  0  0  0  0  0  0  0  0
   50.9686   -5.1271   -4.7892 C   0  0  0  0  0  0  0  0  0  0  0  0
   50.9630   -6.0062   -3.7604 F   0  0  0  0  0  0  0  0  0  0  0  0
   51.9639   -5.1410   -5.7486 C   0  0  0  0  0  0  0  0  0  0  0  0
   51.9201   -4.2227   -6.7732 C   0  0  0  0  0  0  0  0  0  0  0  0
   50.5480   -1.6828   -8.3818 H   0  0  0  0  0  0  0  0  0  0  0  0
   58.6250   -4.1001  -11.8846 N   0  0  0  0  0  0  0  0  0  0  0  0
   58.1518   -4.6018  -10.6741 C   0  0  0  0  0  0  0  0  0  0  0  0
   58.9169   -5.2319   -9.8518 O   0  0  0  0  0  0  0  0  0  0  0  0
   57.8567   -3.6183  -12.4877 H   0  0  0  0  0  0  0  0  0  0  0  0
   59.9013   -4.1386  -12.4906 C   0  0  0  0  0  0  0  0  0  0  0  0
   60.1531   -3.4663  -13.7816 C   0  0  0  0  0  0  0  0  0  0  0  0
   61.5410   -3.1228  -14.1062 C   0  0  0  0  0  0  0  0  0  0  0  0
   61.3861   -4.0785  -16.3297 C   0  0  0  0  0  0  0  0  0  0  0  0
   62.1196   -4.0193  -15.1163 N   0  0  0  0  0  0  0  0  0  0  0  0
   62.6166   -5.2290  -14.5860 C   0  0  0  0  0  0  0  0  0  0  0  0
 29 30  1  0  0  0
 30 31  1  0  0  0
 30 28  1  0  0  0
 28 27  1  0  0  0
 27 26  1  0  0  0
 26 22  1  0  0  0
 22 23  1  0  0  0
 23 24  2  0  0  0
 23  1  1  0  0  0
  1  2  2  0  0  0
  2  3  1  0  0  0
  2  4  1  0  0  0
  4  5  1  0  0  0
  5  9  1  0  0  0
  9 10  2  0  0  0
 10 11  1  0  0  0
 11 12  2  0  0  0
 11 13  1  0  0  0
 13 14  1  0  0  0
 14 15  2  0  0  0
 15 16  1  0  0  0
 16 17  2  0  0  0
 17 18  1  0  0  0
 17 19  1  0  0  0
 19 20  2  0  0  0
  5  6  2  0  0  0
  6  7  1  0  0  0
  6  1  1  0  0  0
 20 10  1  0  0  0
 20 14  1  0  0  0
 22 25  1  0  0  0
  4  8  1  0  0  0
 13 21  1  0  0  0
M  END
> <minimizedAffinity>
-8.52087

> <CNNscore>
0.8246423006

> <CNNaffinity>
6.7771439552

> <CNN_VS>
5.5887193680

> <CNNaffinity_variance>
0.1540302038

$$$$
[H]/C(=C1/C(=O)N([H])c2c([H])c([H])c(F)c([H])c21)c1c(C([H])([H])[H])c(C(=O)N([H])C([H])([H])C([H])([H])C([H])([H])N(C([H])([H])[H])C([H])([H])[H])c(C([H])([H])[H])n1[H]


 31 33  0  0  0  0  0  0  0  0999 V2000
   52.0285   -4.9307   -6.2829 C   0  0  0  0  0  0  0  0  0  0  0  0
   51.8355   -3.8171   -7.1002 C   0  0  0  0  0  0  0  0  0  0  0  0
   50.5978   -2.9678   -7.1306 C   0  0  0  0  0  0  0  0  0  0  0  0
   52.9123   -3.6024   -7.8680 N   0  0  0  0  0  0  0  0  0  0  0  0
   53.7968   -4.5503   -7.5649 C   0  0  0  0  0  0  0  0  0  0  0  0
   53.2652   -5.4064   -6.5635 C   0  0  0  0  0  0  0  0  0  0  0  0
   54.0155   -6.5530   -5.9733 C   0  0  0  0  0  0  0  0  0  0  0  0
   53.0402   -2.8361   -8.5928 H   0  0  0  0  0  0  0  0  0  0  0  0
   55.1348   -4.7725   -8.0858 C   0  0  0  0  0  0  0  0  0  0  0  0
   55.4791   -4.4102   -9.2799 C   0  0  0  0  0  0  0  0  0  0  0  0
   54.7315   -3.7517  -10.3196 C   0  0  0  0  0  0  0  0  0  0  0  0
   53.5386   -3.3541  -10.2557 O   0  0  0  0  0  0  0  0  0  0  0  0
   55.5851   -3.6118  -11.4730 N   0  0  0  0  0  0  0  0  0  0  0  0
   56.8439   -4.1749  -11.1509 C   0  0  0  0  0  0  0  0  0  0  0  0
   57.9855   -4.2966  -11.8804 C   0  0  0  0  0  0  0  0  0  0  0  0
   59.0944   -4.8978  -11.3202 C   0  0  0  0  0  0  0  0  0  0  0  0
   59.0797   -5.3840  -10.0298 C   0  0  0  0  0  0  0  0  0  0  0  0
   60.1905   -5.9666   -9.5221 F   0  0  0  0  0  0  0  0  0  0  0  0
   57.9210   -5.2619   -9.2855 C   0  0  0  0  0  0  0  0  0  0  0  0
   56.8202   -4.6608   -9.8528 C   0  0  0  0  0  0  0  0  0  0  0  0
   55.2528   -3.1629  -12.3470 H   0  0  0  0  0  0  0  0  0  0  0  0
   51.2066   -5.2179   -3.9421 N   0  0  0  0  0  0  0  0  0  0  0  0
   51.0579   -5.3793   -5.3179 C   0  0  0  0  0  0  0  0  0  0  0  0
   50.0250   -5.9543   -5.8290 O   0  0  0  0  0  0  0  0  0  0  0  0
   52.1438   -4.7418   -3.6572 H   0  0  0  0  0  0  0  0  0  0  0  0
   50.3903   -5.5946   -2.8516 C   0  0  0  0  0  0  0  0  0  0  0  0
   50.8524   -6.5877   -1.8604 C   0  0  0  0  0  0  0  0  0  0  0  0
   52.1862   -6.3966   -1.2823 C   0  0  0  0  0  0  0  0  0  0  0  0
   53.6753   -7.8856   -2.4850 C   0  0  0  0  0  0  0  0  0  0  0  0
   53.2562   -6.5457   -2.2782 N   0  0  0  0  0  0  0  0  0  0  0  0
   54.2510   -5.5479   -2.1987 C   0  0  0  0  0  0  0  0  0  0  0  0
 29 30  1  0  0  0
 30 31  1  0  0  0
 30 28  1  0  0  0
 28 27  1  0  0  0
 27 26  1  0  0  0
 26 22  1  0  0  0
 22 23  1  0  0  0
 23 24  2  0  0  0
 23  1  1  0  0  0
  1  2  2  0  0  0
  2  3  1  0  0  0
  2  4  1  0  0  0
  4  5  1  0  0  0
  5  9  1  0  0  0
  9 10  2  0  0  0
 10 11  1  0  0  0
 11 12  2  0  0  0
 11 13  1  0  0  0
 13 14  1  0  0  0
 14 15  2  0  0  0
 15 16  1  0  0  0
 16 17  2  0  0  0
 17 18  1  0  0  0
 17 19  1  0  0  0
 19 20  2  0  0  0
  5  6  2  0  0  0
  6  7  1  0  0  0
  6  1  1  0  0  0
 20 10  1  0  0  0
 20 14  1  0  0  0
 22 25  1  0  0  0
  4  8  1  0  0  0
 13 21  1  0  0  0
M  END
> <minimizedAffinity>
-8.91978

> <CNNscore>
0.8059523702

> <CNNaffinity>
7.0935645103

> <CNN_VS>
5.7170753479

> <CNNaffinity_variance>
0.0714844614

$$$$
[H]/C(=C1/C(=O)N([H])c2c([H])c([H])c(F)c([H])c21)c1c(C([H])([H])[H])c(C(=O)N([H])C([H])([H])C([H])([H])C([H])([H])N(C([H])([H])[H])C([H])([H])[H])c(C([H])([H])[H])n1[H]


 31 33  0  0  0  0  0  0  0  0999 V2000
   56.3944   -4.6683  -10.0063 C   0  0  0  0  0  0  0  0  0  0  0  0
   57.0964   -4.7576   -8.8044 C   0  0  0  0  0  0  0  0  0  0  0  0
   58.5916   -4.7997   -8.6745 C   0  0  0  0  0  0  0  0  0  0  0  0
   56.2511   -4.8047   -7.7660 N   0  0  0  0  0  0  0  0  0  0  0  0
   55.0196   -4.7466   -8.2687 C   0  0  0  0  0  0  0  0  0  0  0  0
   55.0785   -4.6592   -9.6855 C   0  0  0  0  0  0  0  0  0  0  0  0
   53.8731   -4.5440  -10.5570 C   0  0  0  0  0  0  0  0  0  0  0  0
   56.5036   -4.8879   -6.7372 H   0  0  0  0  0  0  0  0  0  0  0  0
   53.7372   -4.7428   -7.5858 C   0  0  0  0  0  0  0  0  0  0  0  0
   52.8781   -3.7864   -7.7370 C   0  0  0  0  0  0  0  0  0  0  0  0
   52.9279   -2.5895   -8.5360 C   0  0  0  0  0  0  0  0  0  0  0  0
   53.8580   -2.2347   -9.3070 O   0  0  0  0  0  0  0  0  0  0  0  0
   51.7142   -1.8442   -8.3128 N   0  0  0  0  0  0  0  0  0  0  0  0
   50.9238   -2.5705   -7.3892 C   0  0  0  0  0  0  0  0  0  0  0  0
   49.7020   -2.3074   -6.8522 C   0  0  0  0  0  0  0  0  0  0  0  0
   49.1423   -3.1967   -5.9574 C   0  0  0  0  0  0  0  0  0  0  0  0
   49.7911   -4.3560   -5.5874 C   0  0  0  0  0  0  0  0  0  0  0  0
   49.2042   -5.1985   -4.7060 F   0  0  0  0  0  0  0  0  0  0  0  0
   51.0330   -4.6266   -6.1313 C   0  0  0  0  0  0  0  0  0  0  0  0
   51.5832   -3.7337   -7.0230 C   0  0  0  0  0  0  0  0  0  0  0  0
   51.5330   -0.9406   -8.7886 H   0  0  0  0  0  0  0  0  0  0  0  0
   56.5167   -3.8249  -12.3538 N   0  0  0  0  0  0  0  0  0  0  0  0
   57.0380   -4.5580  -11.2899 C   0  0  0  0  0  0  0  0  0  0  0  0
   58.1496   -5.2013  -11.3856 O   0  0  0  0  0  0  0  0  0  0  0  0
   55.5563   -3.3602  -12.1346 H   0  0  0  0  0  0  0  0  0  0  0  0
   56.9800   -3.6096  -13.6716 C   0  0  0  0  0  0  0  0  0  0  0  0
   56.2772   -4.1939  -14.8321 C   0  0  0  0  0  0  0  0  0  0  0  0
   55.9951   -3.3102  -15.9675 C   0  0  0  0  0  0  0  0  0  0  0  0
   57.3532   -4.7994  -17.3161 C   0  0  0  0  0  0  0  0  0  0  0  0
   56.9770   -3.4571  -17.0506 N   0  0  0  0  0  0  0  0  0  0  0  0
   57.9930   -2.4778  -17.0346 C   0  0  0  0  0  0  0  0  0  0  0  0
 29 30  1  0  0  0
 30 31  1  0  0  0
 30 28  1  0  0  0
 28 27  1  0  0  0
 27 26  1  0  0  0
 26 22  1  0  0  0
 22 23  1  0  0  0
 23 24  2  0  0  0
 23  1  1  0  0  0
  1  2  2  0  0  0
  2  3  1  0  0  0
  2  4  1  0  0  0
  4  5  1  0  0  0
  5  9  1  0  0  0
  9 10  2  0  0  0
 10 11  1  0  0  0
 11 12  2  0  0  0
 11 13  1  0  0  0
 13 14  1  0  0  0
 14 15  2  0  0  0
 15 16  1  0  0  0
 16 17  2  0  0  0
 17 18  1  0  0  0
 17 19  1  0  0  0
 19 20  2  0  0  0
  5  6  2  0  0  0
  6  7  1  0  0  0
  6  1  1  0  0  0
 20 10  1  0  0  0
 20 14  1  0  0  0
 22 25  1  0  0  0
  4  8  1  0  0  0
 13 21  1  0  0  0
M  END
> <minimizedAffinity>
-8.40219

> <CNNscore>
0.6308757663

> <CNNaffinity>
6.7388277054

> <CNN_VS>
4.2513632774

> <CNNaffinity_variance>
0.1709181368

$$$$
[H]/C(=C1/C(=O)N([H])c2c([H])c([H])c(F)c([H])c21)c1c(C([H])([H])[H])c(C(=O)N([H])C([H])([H])C([H])([H])C([H])([H])N(C([H])([H])[H])C([H])([H])[H])c(C([H])([H])[H])n1[H]


 31 33  0  0  0  0  0  0  0  0999 V2000
   52.5371   -5.8107   -4.7073 C   0  0  0  0  0  0  0  0  0  0  0  0
   51.7579   -5.3465   -5.7669 C   0  0  0  0  0  0  0  0  0  0  0  0
   50.2796   -5.0906   -5.7091 C   0  0  0  0  0  0  0  0  0  0  0  0
   52.5100   -5.1591   -6.8597 N   0  0  0  0  0  0  0  0  0  0  0  0
   53.7570   -5.4899   -6.5305 C   0  0  0  0  0  0  0  0  0  0  0  0
   53.8054   -5.9062   -5.1731 C   0  0  0  0  0  0  0  0  0  0  0  0
   55.0613   -6.3119   -4.4775 C   0  0  0  0  0  0  0  0  0  0  0  0
   52.1823   -4.8259   -7.8139 H   0  0  0  0  0  0  0  0  0  0  0  0
   54.9689   -5.4552   -7.3312 C   0  0  0  0  0  0  0  0  0  0  0  0
   55.0567   -4.7607   -8.4200 C   0  0  0  0  0  0  0  0  0  0  0  0
   54.0980   -3.9120   -9.0788 C   0  0  0  0  0  0  0  0  0  0  0  0
   52.9317   -3.6445   -8.6871 O   0  0  0  0  0  0  0  0  0  0  0  0
   54.6987   -3.4004  -10.2854 N   0  0  0  0  0  0  0  0  0  0  0  0
   56.0115   -3.9244  -10.3713 C   0  0  0  0  0  0  0  0  0  0  0  0
   56.9865   -3.7536  -11.3043 C   0  0  0  0  0  0  0  0  0  0  0  0
   58.2013   -4.3900  -11.1485 C   0  0  0  0  0  0  0  0  0  0  0  0
   58.4590   -5.2023  -10.0643 C   0  0  0  0  0  0  0  0  0  0  0  0
   59.6647   -5.8066   -9.9533 F   0  0  0  0  0  0  0  0  0  0  0  0
   57.4703   -5.3781   -9.1141 C   0  0  0  0  0  0  0  0  0  0  0  0
   56.2619   -4.7393   -9.2781 C   0  0  0  0  0  0  0  0  0  0  0  0
   54.1857   -2.7632  -10.9231 H   0  0  0  0  0  0  0  0  0  0  0  0
   51.8981   -7.3334   -2.8338 N   0  0  0  0  0  0  0  0  0  0  0  0
   52.0101   -6.0613   -3.3906 C   0  0  0  0  0  0  0  0  0  0  0  0
   51.6397   -5.0041   -2.7549 O   0  0  0  0  0  0  0  0  0  0  0  0
   52.2228   -8.1316   -3.4999 H   0  0  0  0  0  0  0  0  0  0  0  0
   51.4034   -7.7807   -1.5877 C   0  0  0  0  0  0  0  0  0  0  0  0
   52.2692   -7.8153   -0.3913 C   0  0  0  0  0  0  0  0  0  0  0  0
   52.9716   -6.5805   -0.0285 C   0  0  0  0  0  0  0  0  0  0  0  0
   54.9712   -5.5370   -0.9195 C   0  0  0  0  0  0  0  0  0  0  0  0
   54.4192   -6.6682   -0.2642 N   0  0  0  0  0  0  0  0  0  0  0  0
   54.8524   -7.9464   -0.6768 C   0  0  0  0  0  0  0  0  0  0  0  0
 29 30  1  0  0  0
 30 31  1  0  0  0
 30 28  1  0  0  0
 28 27  1  0  0  0
 27 26  1  0  0  0
 26 22  1  0  0  0
 22 23  1  0  0  0
 23 24  2  0  0  0
 23  1  1  0  0  0
  1  2  2  0  0  0
  2  3  1  0  0  0
  2  4  1  0  0  0
  4  5  1  0  0  0
  5  9  1  0  0  0
  9 10  2  0  0  0
 10 11  1  0  0  0
 11 12  2  0  0  0
 11 13  1  0  0  0
 13 14  1  0  0  0
 14 15  2  0  0  0
 15 16  1  0  0  0
 16 17  2  0  0  0
 17 18  1  0  0  0
 17 19  1  0  0  0
 19 20  2  0  0  0
  5  6  2  0  0  0
  6  7  1  0  0  0
  6  1  1  0  0  0
 20 10  1  0  0  0
 20 14  1  0  0  0
 22 25  1  0  0  0
  4  8  1  0  0  0
 13 21  1  0  0  0
M  END
> <minimizedAffinity>
-8.27042

> <CNNscore>
0.5107520223

> <CNNaffinity>
6.7165231705

> <CNN_VS>
3.4304778576

> <CNNaffinity_variance>
0.2216746509

$$$$
[H]/C(=C1/C(=O)N([H])c2c([H])c([H])c(F)c([H])c21)c1c(C([H])([H])[H])c(C(=O)N([H])C([H])([H])C([H])([H])C([H])([H])N(C([H])([H])[H])C([H])([H])[H])c(C([H])([H])[H])n1[H]


 31 33  0  0  0  0  0  0  0  0999 V2000
   64.2330   -7.2849   -7.5351 C   0  0  0  0  0  0  0  0  0  0  0  0
   64.8215   -6.7683   -6.3809 C   0  0  0  0  0  0  0  0  0  0  0  0
   65.7423   -5.5834   -6.3327 C   0  0  0  0  0  0  0  0  0  0  0  0
   64.4557   -7.4789   -5.3055 N   0  0  0  0  0  0  0  0  0  0  0  0
   63.6437   -8.4415   -5.7378 C   0  0  0  0  0  0  0  0  0  0  0  0
   63.4834   -8.3438   -7.1460 C   0  0  0  0  0  0  0  0  0  0  0  0
   62.6082   -9.2520   -7.9429 C   0  0  0  0  0  0  0  0  0  0  0  0
   64.7608   -7.3226   -4.2998 H   0  0  0  0  0  0  0  0  0  0  0  0
   62.9496   -9.4760   -4.9901 C   0  0  0  0  0  0  0  0  0  0  0  0
   61.9576   -9.2099   -4.2024 C   0  0  0  0  0  0  0  0  0  0  0  0
   61.3183   -7.9613   -3.8771 C   0  0  0  0  0  0  0  0  0  0  0  0
   61.5989   -6.8257   -4.3428 O   0  0  0  0  0  0  0  0  0  0  0  0
   60.2781   -8.2217   -2.9135 N   0  0  0  0  0  0  0  0  0  0  0  0
   60.2730   -9.6125   -2.6471 C   0  0  0  0  0  0  0  0  0  0  0  0
   59.4959  -10.3653   -1.8227 C   0  0  0  0  0  0  0  0  0  0  0  0
   59.7003  -11.7281   -1.7459 C   0  0  0  0  0  0  0  0  0  0  0  0
   60.6789  -12.3561   -2.4874 C   0  0  0  0  0  0  0  0  0  0  0  0
   60.8438  -13.6949   -2.3794 F   0  0  0  0  0  0  0  0  0  0  0  0
   61.4705  -11.5940   -3.3263 C   0  0  0  0  0  0  0  0  0  0  0  0
   61.2592  -10.2355   -3.3963 C   0  0  0  0  0  0  0  0  0  0  0  0
   59.6830   -7.4619   -2.5336 H   0  0  0  0  0  0  0  0  0  0  0  0
   65.4103   -7.0841   -9.7284 N   0  0  0  0  0  0  0  0  0  0  0  0
   64.4083   -6.7006   -8.8397 C   0  0  0  0  0  0  0  0  0  0  0  0
   63.5575   -5.7779   -9.1289 O   0  0  0  0  0  0  0  0  0  0  0  0
   66.0723   -7.8540   -9.3341 H   0  0  0  0  0  0  0  0  0  0  0  0
   65.7513   -6.6309  -11.0230 C   0  0  0  0  0  0  0  0  0  0  0  0
   64.7227   -6.4737  -12.0715 C   0  0  0  0  0  0  0  0  0  0  0  0
   65.1843   -6.2165  -13.4391 C   0  0  0  0  0  0  0  0  0  0  0  0
   64.0410   -5.4399  -15.4318 C   0  0  0  0  0  0  0  0  0  0  0  0
   64.4222   -5.1462  -14.0968 N   0  0  0  0  0  0  0  0  0  0  0  0
   64.9052   -3.8497  -13.8184 C   0  0  0  0  0  0  0  0  0  0  0  0
 29 30  1  0  0  0
 30 31  1  0  0  0
 30 28  1  0  0  0
 28 27  1  0  0  0
 27 26  1  0  0  0
 26 22  1  0  0  0
 22 23  1  0  0  0
 23 24  2  0  0  0
 23  1  1  0  0  0
  1  2  2  0  0  0
  2  3  1  0  0  0
  2  4  1  0  0  0
  4  5  1  0  0  0
  5  9  1  0  0  0
  9 10  2  0  0  0
 10 11  1  0  0  0
 11 12  2  0  0  0
 11 13  1  0  0  0
 13 14  1  0  0  0
 14 15  2  0  0  0
 15 16  1  0  0  0
 16 17  2  0  0  0
 17 18  1  0  0  0
 17 19  1  0  0  0
 19 20  2  0  0  0
  5  6  2  0  0  0
  6  7  1  0  0  0
  6  1  1  0  0  0
 20 10  1  0  0  0
 20 14  1  0  0  0
 22 25  1  0  0  0
  4  8  1  0  0  0
 13 21  1  0  0  0
M  END
> <minimizedAffinity>
-2.78752

> <CNNscore>
0.4780619144

> <CNNaffinity>
4.7141561508

> <CNN_VS>
2.2536585331

> <CNNaffinity_variance>
0.4496117532

$$$$
[H]/C(=C1/C(=O)N([H])c2c([H])c([H])c(F)c([H])c21)c1c(C([H])([H])[H])c(C(=O)N([H])C([H])([H])C([H])([H])C([H])([H])N(C([H])([H])[H])C([H])([H])[H])c(C([H])([H])[H])n1[H]


 31 33  0  0  0  0  0  0  0  0999 V2000
   51.1997   -4.3926   -6.8983 C   0  0  0  0  0  0  0  0  0  0  0  0
   51.0263   -3.0563   -7.2585 C   0  0  0  0  0  0  0  0  0  0  0  0
   50.0443   -2.1095   -6.6313 C   0  0  0  0  0  0  0  0  0  0  0  0
   51.8597   -2.7233   -8.2533 N   0  0  0  0  0  0  0  0  0  0  0  0
   52.5683   -3.8126   -8.5432 C   0  0  0  0  0  0  0  0  0  0  0  0
   52.1726   -4.8861   -7.7009 C   0  0  0  0  0  0  0  0  0  0  0  0
   52.7947   -6.2415   -7.7426 C   0  0  0  0  0  0  0  0  0  0  0  0
   51.9377   -1.7796   -8.7353 H   0  0  0  0  0  0  0  0  0  0  0  0
   53.6220   -4.0005   -9.5257 C   0  0  0  0  0  0  0  0  0  0  0  0
   54.8594   -4.1712   -9.1860 C   0  0  0  0  0  0  0  0  0  0  0  0
   55.4840   -4.2264   -7.8898 C   0  0  0  0  0  0  0  0  0  0  0  0
   54.9115   -4.1417   -6.7716 O   0  0  0  0  0  0  0  0  0  0  0  0
   56.9026   -4.4024   -8.0770 N   0  0  0  0  0  0  0  0  0  0  0  0
   57.1521   -4.4564   -9.4699 C   0  0  0  0  0  0  0  0  0  0  0  0
   58.3089   -4.6095  -10.1689 C   0  0  0  0  0  0  0  0  0  0  0  0
   58.2769   -4.6291  -11.5486 C   0  0  0  0  0  0  0  0  0  0  0  0
   57.0952   -4.4965  -12.2471 C   0  0  0  0  0  0  0  0  0  0  0  0
   57.1119   -4.5209  -13.5999 F   0  0  0  0  0  0  0  0  0  0  0  0
   55.9176   -4.3407  -11.5397 C   0  0  0  0  0  0  0  0  0  0  0  0
   55.9595   -4.3225  -10.1639 C   0  0  0  0  0  0  0  0  0  0  0  0
   57.5554   -4.4684   -7.2736 H   0  0  0  0  0  0  0  0  0  0  0  0
   50.5975   -4.6559   -4.4889 N   0  0  0  0  0  0  0  0  0  0  0  0
   50.4713   -5.0222   -5.8272 C   0  0  0  0  0  0  0  0  0  0  0  0
   49.6826   -5.9684   -6.2033 O   0  0  0  0  0  0  0  0  0  0  0  0
   51.3233   -3.8615   -4.3204 H   0  0  0  0  0  0  0  0  0  0  0  0
   49.9933   -5.1515   -3.3112 C   0  0  0  0  0  0  0  0  0  0  0  0
   50.7810   -5.8881   -2.3017 C   0  0  0  0  0  0  0  0  0  0  0  0
   51.7807   -6.8436   -2.7889 C   0  0  0  0  0  0  0  0  0  0  0  0
   53.3407   -5.2781   -1.7906 C   0  0  0  0  0  0  0  0  0  0  0  0
   53.1428   -6.2935   -2.7621 N   0  0  0  0  0  0  0  0  0  0  0  0
   53.7040   -6.1002   -4.0424 C   0  0  0  0  0  0  0  0  0  0  0  0
 29 30  1  0  0  0
 30 31  1  0  0  0
 30 28  1  0  0  0
 28 27  1  0  0  0
 27 26  1  0  0  0
 26 22  1  0  0  0
 22 23  1  0  0  0
 23 24  2  0  0  0
 23  1  1  0  0  0
  1  2  2  0  0  0
  2  3  1  0  0  0
  2  4  1  0  0  0
  4  5  1  0  0  0
  5  9  1  0  0  0
  9 10  2  0  0  0
 10 11  1  0  0  0
 11 12  2  0  0  0
 11 13  1  0  0  0
 13 14  1  0  0  0
 14 15  2  0  0  0
 15 16  1  0  0  0
 16 17  2  0  0  0
 17 18  1  0  0  0
 17 19  1  0  0  0
 19 20  2  0  0  0
  5  6  2  0  0  0
  6  7  1  0  0  0
  6  1  1  0  0  0
 20 10  1  0  0  0
 20 14  1  0  0  0
 22 25  1  0  0  0
  4  8  1  0  0  0
 13 21  1  0  0  0
M  END
> <minimizedAffinity>
-8.57264

> <CNNscore>
0.4690763056

> <CNNaffinity>
6.9355020523

> <CNN_VS>
3.2532796860

> <CNNaffinity_variance>
0.0756876171

$$$$
[H]/C(=C1/C(=O)N([H])c2c([H])c([H])c(F)c([H])c21)c1c(C([H])([H])[H])c(C(=O)N([H])C([H])([H])C([H])([H])C([H])([H])N(C([H])([H])[H])C([H])([H])[H])c(C([H])([H])[H])n1[H]


 31 33  0  0  0  0  0  0  0  0999 V2000
   63.0967   -9.5557   -7.9754 C   0  0  0  0  0  0  0  0  0  0  0  0
   63.9989   -8.9000   -7.1380 C   0  0  0  0  0  0  0  0  0  0  0  0
   65.1846   -8.1012   -7.5965 C   0  0  0  0  0  0  0  0  0  0  0  0
   63.6672   -9.0806   -5.8525 N   0  0  0  0  0  0  0  0  0  0  0  0
   62.5712   -9.8364   -5.8399 C   0  0  0  0  0  0  0  0  0  0  0  0
   62.1858  -10.1528   -7.1702 C   0  0  0  0  0  0  0  0  0  0  0  0
   60.9769  -10.9580   -7.5109 C   0  0  0  0  0  0  0  0  0  0  0  0
   64.1812   -8.7097   -4.9997 H   0  0  0  0  0  0  0  0  0  0  0  0
   61.7851  -10.3134   -4.7150 C   0  0  0  0  0  0  0  0  0  0  0  0
   60.9062   -9.5699   -4.1231 C   0  0  0  0  0  0  0  0  0  0  0  0
   60.4903   -8.2149   -4.3770 C   0  0  0  0  0  0  0  0  0  0  0  0
   60.9052   -7.4568   -5.2928 O   0  0  0  0  0  0  0  0  0  0  0  0
   59.4967   -7.8540   -3.3967 N   0  0  0  0  0  0  0  0  0  0  0  0
   59.2997   -8.9708   -2.5486 C   0  0  0  0  0  0  0  0  0  0  0  0
   58.4803   -9.1509   -1.4779 C   0  0  0  0  0  0  0  0  0  0  0  0
   58.4801  -10.3601   -0.8125 C   0  0  0  0  0  0  0  0  0  0  0  0
   59.2941  -11.4020   -1.2044 C   0  0  0  0  0  0  0  0  0  0  0  0
   59.2608  -12.5698   -0.5214 F   0  0  0  0  0  0  0  0  0  0  0  0
   60.1282  -11.2224   -2.2922 C   0  0  0  0  0  0  0  0  0  0  0  0
   60.1214  -10.0129   -2.9495 C   0  0  0  0  0  0  0  0  0  0  0  0
   59.0540   -6.9161   -3.3876 H   0  0  0  0  0  0  0  0  0  0  0  0
   62.8490   -8.3756  -10.1625 N   0  0  0  0  0  0  0  0  0  0  0  0
   63.1732   -9.5042   -9.4127 C   0  0  0  0  0  0  0  0  0  0  0  0
   63.5672  -10.5990   -9.9648 O   0  0  0  0  0  0  0  0  0  0  0  0
   62.5034   -7.5362   -9.5606 H   0  0  0  0  0  0  0  0  0  0  0  0
   62.8444   -8.1340  -11.5550 C   0  0  0  0  0  0  0  0  0  0  0  0
   62.8352   -6.7571  -12.0901 C   0  0  0  0  0  0  0  0  0  0  0  0
   63.5885   -6.5052  -13.3225 C   0  0  0  0  0  0  0  0  0  0  0  0
   62.6878   -6.0210  -15.5215 C   0  0  0  0  0  0  0  0  0  0  0  0
   62.9152   -5.5425  -14.2050 N   0  0  0  0  0  0  0  0  0  0  0  0
   63.3727   -4.2159  -14.0548 C   0  0  0  0  0  0  0  0  0  0  0  0
 29 30  1  0  0  0
 30 31  1  0  0  0
 30 28  1  0  0  0
 28 27  1  0  0  0
 27 26  1  0  0  0
 26 22  1  0  0  0
 22 23  1  0  0  0
 23 24  2  0  0  0
 23  1  1  0  0  0
  1  2  2  0  0  0
  2  3  1  0  0  0
  2  4  1  0  0  0
  4  5  1  0  0  0
  5  9  1  0  0  0
  9 10  2  0  0  0
 10 11  1  0  0  0
 11 12  2  0  0  0
 11 13  1  0  0  0
 13 14  1  0  0  0
 14 15  2  0  0  0
 15 16  1  0  0  0
 16 17  2  0  0  0
 17 18  1  0  0  0
 17 19  1  0  0  0
 19 20  2  0  0  0
  5  6  2  0  0  0
  6  7  1  0  0  0
  6  1  1  0  0  0
 20 10  1  0  0  0
 20 14  1  0  0  0
 22 25  1  0  0  0
  4  8  1  0  0  0
 13 21  1  0  0  0
M  END
> <minimizedAffinity>
-3.59254

> <CNNscore>
0.4676443040

> <CNNaffinity>
4.8579802513

> <CNN_VS>
2.2718067169

> <CNNaffinity_variance>
0.4379231036

$$$$
[H]c1nc(N([H])c2c([H])c([H])c(N3C([H])([H])C([H])([H])N(C([H])([H])[H])C([H])([H])C3([H])[H])c(N([H])C(=O)C([H])([H])[H])c2[H])nc2c1C([H])([H])C([H])([H])c1c(C(=O)N([H])[H])nn(C([H])([H])[H])c1-2


 39 43  0  0  0  0  0  0  0  0999 V2000
   54.5886   -3.6255  -10.3817 N   0  0  0  0  0  0  0  0  0  0  0  0
   54.3550   -3.2804  -11.3847 H   0  0  0  0  0  0  0  0  0  0  0  0
   53.5506   -3.4759   -9.4542 C   0  0  0  0  0  0  0  0  0  0  0  0
   52.5687   -2.5865   -9.5371 N   0  0  0  0  0  0  0  0  0  0  0  0
   51.5732   -2.4497   -8.6460 C   0  0  0  0  0  0  0  0  0  0  0  0
   51.5264   -3.2797   -7.5371 C   0  0  0  0  0  0  0  0  0  0  0  0
   50.4137   -3.0924   -6.5927 C   0  0  0  0  0  0  0  0  0  0  0  0
   50.4259   -3.9965   -5.4149 C   0  0  0  0  0  0  0  0  0  0  0  0
   51.5285   -4.9730   -5.3673 C   0  0  0  0  0  0  0  0  0  0  0  0
   51.7741   -5.9508   -4.3900 C   0  0  0  0  0  0  0  0  0  0  0  0
   52.8844   -6.5816   -4.7845 N   0  0  0  0  0  0  0  0  0  0  0  0
   53.3526   -6.0999   -5.8992 N   0  0  0  0  0  0  0  0  0  0  0  0
   54.5446   -6.5388   -6.6218 C   0  0  0  0  0  0  0  0  0  0  0  0
   52.5350   -5.1030   -6.2851 C   0  0  0  0  0  0  0  0  0  0  0  0
   52.5284   -4.2054   -7.4285 C   0  0  0  0  0  0  0  0  0  0  0  0
   53.4927   -4.2911   -8.3521 N   0  0  0  0  0  0  0  0  0  0  0  0
   50.9901   -6.2187   -3.2094 C   0  0  0  0  0  0  0  0  0  0  0  0
   51.3820   -7.2432   -2.3159 N   0  0  0  0  0  0  0  0  0  0  0  0
   49.9689   -5.5535   -2.9697 O   0  0  0  0  0  0  0  0  0  0  0  0
   51.3303   -8.2334   -2.6300 H   0  0  0  0  0  0  0  0  0  0  0  0
   51.7262   -7.0409   -1.3409 H   0  0  0  0  0  0  0  0  0  0  0  0
   58.4546   -5.1672   -9.9402 C   0  0  0  0  0  0  0  0  0  0  0  0
   57.4706   -5.4356   -9.0157 C   0  0  0  0  0  0  0  0  0  0  0  0
   56.1684   -4.9418   -9.1090 C   0  0  0  0  0  0  0  0  0  0  0  0
   55.8825   -4.1527  -10.1862 C   0  0  0  0  0  0  0  0  0  0  0  0
   56.8692   -3.8622  -11.1471 C   0  0  0  0  0  0  0  0  0  0  0  0
   58.1451   -4.3610  -11.0329 C   0  0  0  0  0  0  0  0  0  0  0  0
   62.1779   -8.8663   -9.3630 C   0  0  0  0  0  0  0  0  0  0  0  0
   61.8282   -7.4908   -9.2003 N   0  0  0  0  0  0  0  0  0  0  0  0
   61.9046   -6.6724  -10.3386 C   0  0  0  0  0  0  0  0  0  0  0  0
   60.6309   -6.0164  -10.7787 C   0  0  0  0  0  0  0  0  0  0  0  0
   59.7327   -5.6857   -9.7266 N   0  0  0  0  0  0  0  0  0  0  0  0
   60.1698   -5.8853   -8.3545 C   0  0  0  0  0  0  0  0  0  0  0  0
   60.8243   -7.2104   -8.2473 C   0  0  0  0  0  0  0  0  0  0  0  0
   59.1497   -4.1191  -12.0036 N   0  0  0  0  0  0  0  0  0  0  0  0
   59.0100   -3.8069  -13.3448 C   0  0  0  0  0  0  0  0  0  0  0  0
   60.2493   -3.5972  -14.1765 C   0  0  0  0  0  0  0  0  0  0  0  0
   57.9418   -3.6787  -13.9522 O   0  0  0  0  0  0  0  0  0  0  0  0
   60.1653   -4.2020  -11.6522 H   0  0  0  0  0  0  0  0  0  0  0  0
 28 29  1  0  0  0
 29 30  1  0  0  0
 30 31  1  0  0  0
 31 32  1  0  0  0
 32 33  1  0  0  0
 33 34  1  0  0  0
 32 22  1  0  0  0
 22 23  2  0  0  0
 23 24  1  0  0  0
 24 25  2  0  0  0
 25  1  1  0  0  0
  1  3  1  0  0  0
  3  4  2  0  0  0
  4  5  1  0  0  0
  5  6  2  0  0  0
  6  7  1  0  0  0
  7  8  1  0  0  0
  8  9  1  0  0  0
  9 10  1  0  0  0
 10 11  2  0  0  0
 11 12  1  0  0  0
 12 13  1  0  0  0
 12 14  1  0  0  0
 14 15  1  0  0  0
 15 16  2  0  0  0
 10 17  1  0  0  0
 17 18  1  0  0  0
 17 19  2  0  0  0
 25 26  1  0  0  0
 26 27  2  0  0  0
 27 35  1  0  0  0
 35 36  1  0  0  0
 36 37  1  0  0  0
 36 38  2  0  0  0
 34 29  1  0  0  0
 27 22  1  0  0  0
 16  3  1  0  0  0
 15  6  1  0  0  0
 14  9  2  0  0  0
  1  2  1  0  0  0
 18 20  1  0  0  0
 18 21  1  0  0  0
 35 39  1  0  0  0
M  END
> <minimizedAffinity>
-9.26289

> <CNNscore>
0.8316755295

> <CNNaffinity>
7.8139142990

> <CNN_VS>
6.4986414909

> <CNNaffinity_variance>
0.1509457827

$$$$
[H]c1nc(N([H])c2c([H])c([H])c(N3C([H])([H])C([H])([H])N(C([H])([H])[H])C([H])([H])C3([H])[H])c(N([H])C(=O)C([H])([H])[H])c2[H])nc2c1C([H])([H])C([H])([H])c1c(C(=O)N([H])[H])nn(C([H])([H])[H])c1-2


 39 43  0  0  0  0  0  0  0  0999 V2000
   54.4114   -3.6567  -10.3598 N   0  0  0  0  0  0  0  0  0  0  0  0
   54.2259   -3.3870  -11.3954 H   0  0  0  0  0  0  0  0  0  0  0  0
   53.3724   -3.3393   -9.4767 C   0  0  0  0  0  0  0  0  0  0  0  0
   52.5568   -2.2985   -9.5927 N   0  0  0  0  0  0  0  0  0  0  0  0
   51.5591   -2.0007   -8.7443 C   0  0  0  0  0  0  0  0  0  0  0  0
   51.3253   -2.8151   -7.6475 C   0  0  0  0  0  0  0  0  0  0  0  0
   50.2183   -2.4482   -6.7504 C   0  0  0  0  0  0  0  0  0  0  0  0
   50.0273   -3.3457   -5.5831 C   0  0  0  0  0  0  0  0  0  0  0  0
   50.9488   -4.4925   -5.4981 C   0  0  0  0  0  0  0  0  0  0  0  0
   50.9844   -5.5008   -4.5216 C   0  0  0  0  0  0  0  0  0  0  0  0
   51.9909   -6.3065   -4.8742 N   0  0  0  0  0  0  0  0  0  0  0  0
   52.5820   -5.9057   -5.9623 N   0  0  0  0  0  0  0  0  0  0  0  0
   53.7155   -6.5347   -6.6370 C   0  0  0  0  0  0  0  0  0  0  0  0
   51.9597   -4.7852   -6.3726 C   0  0  0  0  0  0  0  0  0  0  0  0
   52.1536   -3.8952   -7.5055 C   0  0  0  0  0  0  0  0  0  0  0  0
   53.1305   -4.1372   -8.3871 N   0  0  0  0  0  0  0  0  0  0  0  0
   50.1148   -5.6383   -3.3792 C   0  0  0  0  0  0  0  0  0  0  0  0
   50.5653   -6.3187   -2.2235 N   0  0  0  0  0  0  0  0  0  0  0  0
   48.9682   -5.1614   -3.4021 O   0  0  0  0  0  0  0  0  0  0  0  0
   50.7341   -7.3438   -2.2754 H   0  0  0  0  0  0  0  0  0  0  0  0
   50.7378   -5.8251   -1.3089 H   0  0  0  0  0  0  0  0  0  0  0  0
   58.0663   -5.4576   -9.4029 C   0  0  0  0  0  0  0  0  0  0  0  0
   57.8551   -4.8864  -10.6374 C   0  0  0  0  0  0  0  0  0  0  0  0
   56.6550   -4.2803  -11.0123 C   0  0  0  0  0  0  0  0  0  0  0  0
   55.6533   -4.2668  -10.0843 C   0  0  0  0  0  0  0  0  0  0  0  0
   55.8418   -4.8431   -8.8140 C   0  0  0  0  0  0  0  0  0  0  0  0
   57.0338   -5.4343   -8.4685 C   0  0  0  0  0  0  0  0  0  0  0  0
   63.2089   -6.4916  -10.0069 C   0  0  0  0  0  0  0  0  0  0  0  0
   61.9693   -6.9047   -9.4294 N   0  0  0  0  0  0  0  0  0  0  0  0
   61.5752   -6.2713   -8.2399 C   0  0  0  0  0  0  0  0  0  0  0  0
   60.2781   -5.5215   -8.2782 C   0  0  0  0  0  0  0  0  0  0  0  0
   59.2957   -6.0680   -9.1497 N   0  0  0  0  0  0  0  0  0  0  0  0
   59.5781   -7.3354   -9.8036 C   0  0  0  0  0  0  0  0  0  0  0  0
   60.9612   -7.3037  -10.3344 C   0  0  0  0  0  0  0  0  0  0  0  0
   57.2680   -5.9881   -7.1847 N   0  0  0  0  0  0  0  0  0  0  0  0
   56.7759   -5.5824   -5.9563 C   0  0  0  0  0  0  0  0  0  0  0  0
   57.1813   -6.3455   -4.7213 C   0  0  0  0  0  0  0  0  0  0  0  0
   56.0152   -4.6291   -5.7586 O   0  0  0  0  0  0  0  0  0  0  0  0
   57.9325   -6.8365   -7.1585 H   0  0  0  0  0  0  0  0  0  0  0  0
 28 29  1  0  0  0
 29 30  1  0  0  0
 30 31  1  0  0  0
 31 32  1  0  0  0
 32 33  1  0  0  0
 33 34  1  0  0  0
 32 22  1  0  0  0
 22 23  2  0  0  0
 23 24  1  0  0  0
 24 25  2  0  0  0
 25  1  1  0  0  0
  1  3  1  0  0  0
  3  4  2  0  0  0
  4  5  1  0  0  0
  5  6  2  0  0  0
  6  7  1  0  0  0
  7  8  1  0  0  0
  8  9  1  0  0  0
  9 10  1  0  0  0
 10 11  2  0  0  0
 11 12  1  0  0  0
 12 13  1  0  0  0
 12 14  1  0  0  0
 14 15  1  0  0  0
 15 16  2  0  0  0
 10 17  1  0  0  0
 17 18  1  0  0  0
 17 19  2  0  0  0
 25 26  1  0  0  0
 26 27  2  0  0  0
 27 35  1  0  0  0
 35 36  1  0  0  0
 36 37  1  0  0  0
 36 38  2  0  0  0
 34 29  1  0  0  0
 27 22  1  0  0  0
 16  3  1  0  0  0
 15  6  1  0  0  0
 14  9  2  0  0  0
  1  2  1  0  0  0
 18 20  1  0  0  0
 18 21  1  0  0  0
 35 39  1  0  0  0
M  END
> <minimizedAffinity>
-8.33647

> <CNNscore>
0.8316064477

> <CNNaffinity>
7.9024605751

> <CNN_VS>
6.5717372894

> <CNNaffinity_variance>
0.1793898344

$$$$
[H]c1nc(N([H])c2c([H])c([H])c(N3C([H])([H])C([H])([H])N(C([H])([H])[H])C([H])([H])C3([H])[H])c(N([H])C(=O)C([H])([H])[H])c2[H])nc2c1C([H])([H])C([H])([H])c1c(C(=O)N([H])[H])nn(C([H])([H])[H])c1-2


 39 43  0  0  0  0  0  0  0  0999 V2000
   54.9077   -3.9532   -9.9191 N   0  0  0  0  0  0  0  0  0  0  0  0
   54.0750   -3.3783  -10.3139 H   0  0  0  0  0  0  0  0  0  0  0  0
   54.6687   -4.5530   -8.6769 C   0  0  0  0  0  0  0  0  0  0  0  0
   55.5125   -5.3512   -8.0343 N   0  0  0  0  0  0  0  0  0  0  0  0
   55.2794   -5.9212   -6.8407 C   0  0  0  0  0  0  0  0  0  0  0  0
   54.0774   -5.6868   -6.1917 C   0  0  0  0  0  0  0  0  0  0  0  0
   53.8721   -6.3312   -4.8849 C   0  0  0  0  0  0  0  0  0  0  0  0
   52.5597   -6.0593   -4.2459 C   0  0  0  0  0  0  0  0  0  0  0  0
   51.6577   -5.1622   -4.9896 C   0  0  0  0  0  0  0  0  0  0  0  0
   50.3768   -4.7236   -4.6176 C   0  0  0  0  0  0  0  0  0  0  0  0
   49.9645   -3.9336   -5.6138 N   0  0  0  0  0  0  0  0  0  0  0  0
   50.8510   -3.8364   -6.5618 N   0  0  0  0  0  0  0  0  0  0  0  0
   50.7437   -3.0649   -7.7983 C   0  0  0  0  0  0  0  0  0  0  0  0
   51.9103   -4.5857   -6.2046 C   0  0  0  0  0  0  0  0  0  0  0  0
   53.1899   -4.8670   -6.8344 C   0  0  0  0  0  0  0  0  0  0  0  0
   53.4829   -4.3292   -8.0239 N   0  0  0  0  0  0  0  0  0  0  0  0
   49.6586   -5.0550   -3.4115 C   0  0  0  0  0  0  0  0  0  0  0  0
   50.3175   -5.7300   -2.3572 N   0  0  0  0  0  0  0  0  0  0  0  0
   48.4606   -4.7504   -3.2906 O   0  0  0  0  0  0  0  0  0  0  0  0
   50.6214   -6.7144   -2.5006 H   0  0  0  0  0  0  0  0  0  0  0  0
   50.5137   -5.2721   -1.4289 H   0  0  0  0  0  0  0  0  0  0  0  0
   58.4419   -4.1072  -12.1559 C   0  0  0  0  0  0  0  0  0  0  0  0
   57.3468   -3.4021  -12.6015 C   0  0  0  0  0  0  0  0  0  0  0  0
   56.1421   -3.3236  -11.9011 C   0  0  0  0  0  0  0  0  0  0  0  0
   56.0740   -3.9915  -10.7119 C   0  0  0  0  0  0  0  0  0  0  0  0
   57.1786   -4.7201  -10.2320 C   0  0  0  0  0  0  0  0  0  0  0  0
   58.3549   -4.7820  -10.9407 C   0  0  0  0  0  0  0  0  0  0  0  0
   63.0412   -2.4680  -14.1658 C   0  0  0  0  0  0  0  0  0  0  0  0
   61.9369   -3.3654  -14.2919 N   0  0  0  0  0  0  0  0  0  0  0  0
   61.9579   -4.5213  -13.4951 C   0  0  0  0  0  0  0  0  0  0  0  0
   60.8266   -4.6875  -12.5261 C   0  0  0  0  0  0  0  0  0  0  0  0
   59.5841   -4.1458  -12.9571 N   0  0  0  0  0  0  0  0  0  0  0  0
   59.4913   -3.6144  -14.3072 C   0  0  0  0  0  0  0  0  0  0  0  0
   60.6845   -2.7782  -14.5767 C   0  0  0  0  0  0  0  0  0  0  0  0
   59.4973   -5.4742  -10.4658 N   0  0  0  0  0  0  0  0  0  0  0  0
   59.8425   -5.7998   -9.1655 C   0  0  0  0  0  0  0  0  0  0  0  0
   61.1282   -6.5465   -8.9186 C   0  0  0  0  0  0  0  0  0  0  0  0
   59.1869   -5.5334   -8.1527 O   0  0  0  0  0  0  0  0  0  0  0  0
   60.2033   -5.7793  -11.2211 H   0  0  0  0  0  0  0  0  0  0  0  0
 28 29  1  0  0  0
 29 30  1  0  0  0
 30 31  1  0  0  0
 31 32  1  0  0  0
 32 33  1  0  0  0
 33 34  1  0  0  0
 32 22  1  0  0  0
 22 23  2  0  0  0
 23 24  1  0  0  0
 24 25  2  0  0  0
 25  1  1  0  0  0
  1  3  1  0  0  0
  3  4  2  0  0  0
  4  5  1  0  0  0
  5  6  2  0  0  0
  6  7  1  0  0  0
  7  8  1  0  0  0
  8  9  1  0  0  0
  9 10  1  0  0  0
 10 11  2  0  0  0
 11 12  1  0  0  0
 12 13  1  0  0  0
 12 14  1  0  0  0
 14 15  1  0  0  0
 15 16  2  0  0  0
 10 17  1  0  0  0
 17 18  1  0  0  0
 17 19  2  0  0  0
 25 26  1  0  0  0
 26 27  2  0  0  0
 27 35  1  0  0  0
 35 36  1  0  0  0
 36 37  1  0  0  0
 36 38  2  0  0  0
 34 29  1  0  0  0
 27 22  1  0  0  0
 16  3  1  0  0  0
 15  6  1  0  0  0
 14  9  2  0  0  0
  1  2  1  0  0  0
 18 20  1  0  0  0
 18 21  1  0  0  0
 35 39  1  0  0  0
M  END
> <minimizedAffinity>
-8.16706

> <CNNscore>
0.6652610898

> <CNNaffinity>
7.4540405273

> <CNN_VS>
4.9588832855

> <CNNaffinity_variance>
0.1168051511

$$$$
[H]c1nc(N([H])c2c([H])c([H])c(N3C([H])([H])C([H])([H])N(C([H])([H])[H])C([H])([H])C3([H])[H])c(N([H])C(=O)C([H])([H])[H])c2[H])nc2c1C([H])([H])C([H])([H])c1c(C(=O)N([H])[H])nn(C([H])([H])[H])c1-2


 39 43  0  0  0  0  0  0  0  0999 V2000
   55.7447   -4.9452   -8.7978 N   0  0  0  0  0  0  0  0  0  0  0  0
   55.9376   -5.7260   -8.0678 H   0  0  0  0  0  0  0  0  0  0  0  0
   54.5365   -4.2609   -8.6181 C   0  0  0  0  0  0  0  0  0  0  0  0
   54.0776   -3.2937   -9.4029 N   0  0  0  0  0  0  0  0  0  0  0  0
   52.9158   -2.6429   -9.2278 C   0  0  0  0  0  0  0  0  0  0  0  0
   52.0993   -2.9729   -8.1576 C   0  0  0  0  0  0  0  0  0  0  0  0
   50.8354   -2.2337   -8.0119 C   0  0  0  0  0  0  0  0  0  0  0  0
   50.0114   -2.6167   -6.8376 C   0  0  0  0  0  0  0  0  0  0  0  0
   50.5545   -3.6997   -5.9988 C   0  0  0  0  0  0  0  0  0  0  0  0
   49.9843   -4.2698   -4.8493 C   0  0  0  0  0  0  0  0  0  0  0  0
   50.8492   -5.2057   -4.4461 N   0  0  0  0  0  0  0  0  0  0  0  0
   51.8925   -5.2761   -5.2210 N   0  0  0  0  0  0  0  0  0  0  0  0
   53.0358   -6.1763   -5.0866 C   0  0  0  0  0  0  0  0  0  0  0  0
   51.7394   -4.3563   -6.1915 C   0  0  0  0  0  0  0  0  0  0  0  0
   52.5508   -3.9675   -7.3332 C   0  0  0  0  0  0  0  0  0  0  0  0
   53.7191   -4.5778   -7.5627 N   0  0  0  0  0  0  0  0  0  0  0  0
   48.7274   -3.9195   -4.2348 C   0  0  0  0  0  0  0  0  0  0  0  0
   47.9963   -2.8027   -4.7036 N   0  0  0  0  0  0  0  0  0  0  0  0
   48.2795   -4.5941   -3.2929 O   0  0  0  0  0  0  0  0  0  0  0  0
   48.3847   -1.8488   -4.5588 H   0  0  0  0  0  0  0  0  0  0  0  0
   47.0702   -2.9006   -5.1964 H   0  0  0  0  0  0  0  0  0  0  0  0
   58.7616   -4.4410  -11.6546 C   0  0  0  0  0  0  0  0  0  0  0  0
   57.5379   -3.8262  -11.7945 C   0  0  0  0  0  0  0  0  0  0  0  0
   56.4947   -3.9657  -10.8778 C   0  0  0  0  0  0  0  0  0  0  0  0
   56.7282   -4.7606   -9.7922 C   0  0  0  0  0  0  0  0  0  0  0  0
   57.9702   -5.4012   -9.6237 C   0  0  0  0  0  0  0  0  0  0  0  0
   58.9825   -5.2477  -10.5411 C   0  0  0  0  0  0  0  0  0  0  0  0
   62.8438   -2.1935  -14.1375 C   0  0  0  0  0  0  0  0  0  0  0  0
   61.7474   -3.1047  -14.2290 N   0  0  0  0  0  0  0  0  0  0  0  0
   61.9416   -4.3936  -13.7071 C   0  0  0  0  0  0  0  0  0  0  0  0
   61.0300   -4.8093  -12.5923 C   0  0  0  0  0  0  0  0  0  0  0  0
   59.7199   -4.2587  -12.6528 N   0  0  0  0  0  0  0  0  0  0  0  0
   59.3516   -3.4742  -13.8201 C   0  0  0  0  0  0  0  0  0  0  0  0
   60.4564   -2.5393  -14.1380 C   0  0  0  0  0  0  0  0  0  0  0  0
   60.2569   -5.8475  -10.3798 N   0  0  0  0  0  0  0  0  0  0  0  0
   60.8793   -6.2761   -9.2202 C   0  0  0  0  0  0  0  0  0  0  0  0
   62.2543   -6.8862   -9.3144 C   0  0  0  0  0  0  0  0  0  0  0  0
   60.4117   -6.2084   -8.0785 O   0  0  0  0  0  0  0  0  0  0  0  0
   60.8277   -5.9768  -11.2850 H   0  0  0  0  0  0  0  0  0  0  0  0
 28 29  1  0  0  0
 29 30  1  0  0  0
 30 31  1  0  0  0
 31 32  1  0  0  0
 32 33  1  0  0  0
 33 34  1  0  0  0
 32 22  1  0  0  0
 22 23  2  0  0  0
 23 24  1  0  0  0
 24 25  2  0  0  0
 25  1  1  0  0  0
  1  3  1  0  0  0
  3  4  2  0  0  0
  4  5  1  0  0  0
  5  6  2  0  0  0
  6  7  1  0  0  0
  7  8  1  0  0  0
  8  9  1  0  0  0
  9 10  1  0  0  0
 10 11  2  0  0  0
 11 12  1  0  0  0
 12 13  1  0  0  0
 12 14  1  0  0  0
 14 15  1  0  0  0
 15 16  2  0  0  0
 10 17  1  0  0  0
 17 18  1  0  0  0
 17 19  2  0  0  0
 25 26  1  0  0  0
 26 27  2  0  0  0
 27 35  1  0  0  0
 35 36  1  0  0  0
 36 37  1  0  0  0
 36 38  2  0  0  0
 34 29  1  0  0  0
 27 22  1  0  0  0
 16  3  1  0  0  0
 15  6  1  0  0  0
 14  9  2  0  0  0
  1  2  1  0  0  0
 18 20  1  0  0  0
 18 21  1  0  0  0
 35 39  1  0  0  0
M  END
> <minimizedAffinity>
-8.73393

> <CNNscore>
0.5529714823

> <CNNaffinity>
7.2306737900

> <CNN_VS>
3.9983563423

> <CNNaffinity_variance>
0.0970145017

$$$$
[H]c1nc(N([H])c2c([H])c([H])c(N3C([H])([H])C([H])([H])N(C([H])([H])[H])C([H])([H])C3([H])[H])c(N([H])C(=O)C([H])([H])[H])c2[H])nc2c1C([H])([H])C([H])([H])c1c(C(=O)N([H])[H])nn(C([H])([H])[H])c1-2


 39 43  0  0  0  0  0  0  0  0999 V2000
   52.6377   -3.6486   -8.8503 N   0  0  0  0  0  0  0  0  0  0  0  0
   52.1514   -3.2398   -9.7313 H   0  0  0  0  0  0  0  0  0  0  0  0
   51.8175   -3.7435   -7.7196 C   0  0  0  0  0  0  0  0  0  0  0  0
   50.6798   -3.0841   -7.5385 N   0  0  0  0  0  0  0  0  0  0  0  0
   49.8949   -3.1817   -6.4530 C   0  0  0  0  0  0  0  0  0  0  0  0
   50.2612   -4.0241   -5.4152 C   0  0  0  0  0  0  0  0  0  0  0  0
   49.3656   -4.0987   -4.2501 C   0  0  0  0  0  0  0  0  0  0  0  0
   49.8184   -5.0021   -3.1622 C   0  0  0  0  0  0  0  0  0  0  0  0
   51.0815   -5.7200   -3.4086 C   0  0  0  0  0  0  0  0  0  0  0  0
   51.7286   -6.6413   -2.5697 C   0  0  0  0  0  0  0  0  0  0  0  0
   52.8323   -7.0112   -3.2266 N   0  0  0  0  0  0  0  0  0  0  0  0
   52.9384   -6.4184   -4.3803 N   0  0  0  0  0  0  0  0  0  0  0  0
   54.0094   -6.5770   -5.3619 C   0  0  0  0  0  0  0  0  0  0  0  0
   51.8697   -5.6128   -4.5220 C   0  0  0  0  0  0  0  0  0  0  0  0
   51.4311   -4.7152   -5.5779 C   0  0  0  0  0  0  0  0  0  0  0  0
   52.1687   -4.5737   -6.6852 N   0  0  0  0  0  0  0  0  0  0  0  0
   51.2915   -7.0945   -1.2720 C   0  0  0  0  0  0  0  0  0  0  0  0
   52.0978   -6.8647   -0.1325 N   0  0  0  0  0  0  0  0  0  0  0  0
   50.2073   -7.6873   -1.1467 O   0  0  0  0  0  0  0  0  0  0  0  0
   53.0075   -7.3621   -0.0498 H   0  0  0  0  0  0  0  0  0  0  0  0
   51.8114   -6.2061    0.6383 H   0  0  0  0  0  0  0  0  0  0  0  0
   56.6554   -4.6782   -9.4120 C   0  0  0  0  0  0  0  0  0  0  0  0
   55.9764   -5.0520   -8.2743 C   0  0  0  0  0  0  0  0  0  0  0  0
   54.6402   -4.7294   -8.0318 C   0  0  0  0  0  0  0  0  0  0  0  0
   53.9957   -4.0034   -8.9922 C   0  0  0  0  0  0  0  0  0  0  0  0
   54.6654   -3.6080  -10.1655 C   0  0  0  0  0  0  0  0  0  0  0  0
   55.9823   -3.9386  -10.3812 C   0  0  0  0  0  0  0  0  0  0  0  0
   60.8495   -7.8636   -9.7895 C   0  0  0  0  0  0  0  0  0  0  0  0
   60.3777   -6.5363   -9.5523 N   0  0  0  0  0  0  0  0  0  0  0  0
   60.0541   -5.7617  -10.6777 C   0  0  0  0  0  0  0  0  0  0  0  0
   58.6363   -5.2862  -10.7784 C   0  0  0  0  0  0  0  0  0  0  0  0
   58.0016   -5.0262   -9.5322 N   0  0  0  0  0  0  0  0  0  0  0  0
   58.7969   -5.1143   -8.3184 C   0  0  0  0  0  0  0  0  0  0  0  0
   59.6231   -6.3432   -8.3742 C   0  0  0  0  0  0  0  0  0  0  0  0
   56.6728   -3.5893  -11.5691 N   0  0  0  0  0  0  0  0  0  0  0  0
   56.5432   -4.1184  -12.8414 C   0  0  0  0  0  0  0  0  0  0  0  0
   57.4056   -3.5702  -13.9494 C   0  0  0  0  0  0  0  0  0  0  0  0
   55.7706   -5.0228  -13.1757 O   0  0  0  0  0  0  0  0  0  0  0  0
   57.4117   -2.8114  -11.4656 H   0  0  0  0  0  0  0  0  0  0  0  0
 28 29  1  0  0  0
 29 30  1  0  0  0
 30 31  1  0  0  0
 31 32  1  0  0  0
 32 33  1  0  0  0
 33 34  1  0  0  0
 32 22  1  0  0  0
 22 23  2  0  0  0
 23 24  1  0  0  0
 24 25  2  0  0  0
 25  1  1  0  0  0
  1  3  1  0  0  0
  3  4  2  0  0  0
  4  5  1  0  0  0
  5  6  2  0  0  0
  6  7  1  0  0  0
  7  8  1  0  0  0
  8  9  1  0  0  0
  9 10  1  0  0  0
 10 11  2  0  0  0
 11 12  1  0  0  0
 12 13  1  0  0  0
 12 14  1  0  0  0
 14 15  1  0  0  0
 15 16  2  0  0  0
 10 17  1  0  0  0
 17 18  1  0  0  0
 17 19  2  0  0  0
 25 26  1  0  0  0
 26 27  2  0  0  0
 27 35  1  0  0  0
 35 36  1  0  0  0
 36 37  1  0  0  0
 36 38  2  0  0  0
 34 29  1  0  0  0
 27 22  1  0  0  0
 16  3  1  0  0  0
 15  6  1  0  0  0
 14  9  2  0  0  0
  1  2  1  0  0  0
 18 20  1  0  0  0
 18 21  1  0  0  0
 35 39  1  0  0  0
M  END
> <minimizedAffinity>
-9.41005

> <CNNscore>
0.5163139105

> <CNNaffinity>
7.6327643394

> <CNN_VS>
3.9409024715

> <CNNaffinity_variance>
0.2041686475

$$$$
[H]c1nc(N([H])c2c([H])c([H])c(N3C([H])([H])C([H])([H])N(C([H])([H])[H])C([H])([H])C3([H])[H])c(N([H])C(=O)C([H])([H])[H])c2[H])nc2c1C([H])([H])C([H])([H])c1c(C(=O)N([H])[H])nn(C([H])([H])[H])c1-2


 39 43  0  0  0  0  0  0  0  0999 V2000
   54.9482   -4.4136   -8.7132 N   0  0  0  0  0  0  0  0  0  0  0  0
   54.5015   -3.7010   -9.4005 H   0  0  0  0  0  0  0  0  0  0  0  0
   54.1027   -4.8427   -7.6830 C   0  0  0  0  0  0  0  0  0  0  0  0
   54.3179   -5.8925   -6.8997 N   0  0  0  0  0  0  0  0  0  0  0  0
   53.5049   -6.2976   -5.9104 C   0  0  0  0  0  0  0  0  0  0  0  0
   52.3384   -5.5958   -5.6504 C   0  0  0  0  0  0  0  0  0  0  0  0
   51.4839   -6.0774   -4.5537 C   0  0  0  0  0  0  0  0  0  0  0  0
   50.2393   -5.2981   -4.3338 C   0  0  0  0  0  0  0  0  0  0  0  0
   50.0447   -4.1368   -5.2198 C   0  0  0  0  0  0  0  0  0  0  0  0
   48.9790   -3.2226   -5.2232 C   0  0  0  0  0  0  0  0  0  0  0  0
   49.2513   -2.3576   -6.2052 N   0  0  0  0  0  0  0  0  0  0  0  0
   50.3693   -2.6378   -6.8098 N   0  0  0  0  0  0  0  0  0  0  0  0
   50.9781   -1.9151   -7.9245 C   0  0  0  0  0  0  0  0  0  0  0  0
   50.8841   -3.7339   -6.2225 C   0  0  0  0  0  0  0  0  0  0  0  0
   52.0936   -4.5089   -6.4451 C   0  0  0  0  0  0  0  0  0  0  0  0
   52.9449   -4.1568   -7.4154 N   0  0  0  0  0  0  0  0  0  0  0  0
   47.8324   -3.2178   -4.3482 C   0  0  0  0  0  0  0  0  0  0  0  0
   47.5062   -4.3741   -3.6012 N   0  0  0  0  0  0  0  0  0  0  0  0
   47.1262   -2.2013   -4.2446 O   0  0  0  0  0  0  0  0  0  0  0  0
   47.1757   -5.2226   -4.1039 H   0  0  0  0  0  0  0  0  0  0  0  0
   47.5861   -4.4091   -2.5513 H   0  0  0  0  0  0  0  0  0  0  0  0
   58.8975   -5.4685   -9.6115 C   0  0  0  0  0  0  0  0  0  0  0  0
   58.3275   -5.8037   -8.4041 C   0  0  0  0  0  0  0  0  0  0  0  0
   57.0193   -5.4709   -8.0493 C   0  0  0  0  0  0  0  0  0  0  0  0
   56.2875   -4.7755   -8.9689 C   0  0  0  0  0  0  0  0  0  0  0  0
   56.8450   -4.4198  -10.2116 C   0  0  0  0  0  0  0  0  0  0  0  0
   58.1365   -4.7597  -10.5376 C   0  0  0  0  0  0  0  0  0  0  0  0
   62.9620   -8.6177  -10.8127 C   0  0  0  0  0  0  0  0  0  0  0  0
   62.5447   -7.3637  -10.2703 N   0  0  0  0  0  0  0  0  0  0  0  0
   62.2271   -6.3457  -11.1836 C   0  0  0  0  0  0  0  0  0  0  0  0
   60.8262   -5.8153  -11.1349 C   0  0  0  0  0  0  0  0  0  0  0  0
   60.2272   -5.8227   -9.8448 N   0  0  0  0  0  0  0  0  0  0  0  0
   61.0433   -6.2071   -8.7046 C   0  0  0  0  0  0  0  0  0  0  0  0
   61.8220   -7.4172   -9.0581 C   0  0  0  0  0  0  0  0  0  0  0  0
   58.7133   -4.4507  -11.7953 N   0  0  0  0  0  0  0  0  0  0  0  0
   58.1130   -3.9204  -12.9241 C   0  0  0  0  0  0  0  0  0  0  0  0
   58.9532   -3.6843  -14.1529 C   0  0  0  0  0  0  0  0  0  0  0  0
   56.9220   -3.6107  -13.0346 O   0  0  0  0  0  0  0  0  0  0  0  0
   59.7640   -4.6710  -11.8915 H   0  0  0  0  0  0  0  0  0  0  0  0
 28 29  1  0  0  0
 29 30  1  0  0  0
 30 31  1  0  0  0
 31 32  1  0  0  0
 32 33  1  0  0  0
 33 34  1  0  0  0
 32 22  1  0  0  0
 22 23  2  0  0  0
 23 24  1  0  0  0
 24 25  2  0  0  0
 25  1  1  0  0  0
  1  3  1  0  0  0
  3  4  2  0  0  0
  4  5  1  0  0  0
  5  6  2  0  0  0
  6  7  1  0  0  0
  7  8  1  0  0  0
  8  9  1  0  0  0
  9 10  1  0  0  0
 10 11  2  0  0  0
 11 12  1  0  0  0
 12 13  1  0  0  0
 12 14  1  0  0  0
 14 15  1  0  0  0
 15 16  2  0  0  0
 10 17  1  0  0  0
 17 18  1  0  0  0
 17 19  2  0  0  0
 25 26  1  0  0  0
 26 27  2  0  0  0
 27 35  1  0  0  0
 35 36  1  0  0  0
 36 37  1  0  0  0
 36 38  2  0  0  0
 34 29  1  0  0  0
 27 22  1  0  0  0
 16  3  1  0  0  0
 15  6  1  0  0  0
 14  9  2  0  0  0
  1  2  1  0  0  0
 18 20  1  0  0  0
 18 21  1  0  0  0
 35 39  1  0  0  0
M  END
> <minimizedAffinity>
-8.19383

> <CNNscore>
0.4723615348

> <CNNaffinity>
7.3778214455

> <CNN_VS>
3.4849991798

> <CNNaffinity_variance>
0.2437147200

$$$$
[H]c1nc(N([H])c2c([H])c([H])c(N3C([H])([H])C([H])([H])N(C([H])([H])[H])C([H])([H])C3([H])[H])c(N([H])C(=O)C([H])([H])[H])c2[H])nc2c1C([H])([H])C([H])([H])c1c(C(=O)N([H])[H])nn(C([H])([H])[H])c1-2


 39 43  0  0  0  0  0  0  0  0999 V2000
   52.0739   -3.6022   -8.6682 N   0  0  0  0  0  0  0  0  0  0  0  0
   51.5140   -3.2567   -9.5324 H   0  0  0  0  0  0  0  0  0  0  0  0
   51.3317   -3.6837   -7.4839 C   0  0  0  0  0  0  0  0  0  0  0  0
   50.2578   -2.9574   -7.1989 N   0  0  0  0  0  0  0  0  0  0  0  0
   49.5474   -3.0422   -6.0623 C   0  0  0  0  0  0  0  0  0  0  0  0
   49.9278   -3.9442   -5.0813 C   0  0  0  0  0  0  0  0  0  0  0  0
   49.1146   -4.0016   -3.8564 C   0  0  0  0  0  0  0  0  0  0  0  0
   49.5805   -4.9721   -2.8338 C   0  0  0  0  0  0  0  0  0  0  0  0
   50.7705   -5.7627   -3.1948 C   0  0  0  0  0  0  0  0  0  0  0  0
   51.4108   -6.7548   -2.4352 C   0  0  0  0  0  0  0  0  0  0  0  0
   52.4369   -7.1729   -3.1828 N   0  0  0  0  0  0  0  0  0  0  0  0
   52.5010   -6.5468   -4.3220 N   0  0  0  0  0  0  0  0  0  0  0  0
   53.4860   -6.7402   -5.3841 C   0  0  0  0  0  0  0  0  0  0  0  0
   51.4829   -5.6675   -4.3592 C   0  0  0  0  0  0  0  0  0  0  0  0
   51.0330   -4.7049   -5.3512 C   0  0  0  0  0  0  0  0  0  0  0  0
   51.6978   -4.5724   -6.5048 N   0  0  0  0  0  0  0  0  0  0  0  0
   51.0371   -7.2250   -1.1239 C   0  0  0  0  0  0  0  0  0  0  0  0
   51.8919   -6.9984   -0.0196 N   0  0  0  0  0  0  0  0  0  0  0  0
   49.9653   -7.8297   -0.9558 O   0  0  0  0  0  0  0  0  0  0  0  0
   52.8091   -7.4875    0.0169 H   0  0  0  0  0  0  0  0  0  0  0  0
   51.6344   -6.3502    0.7701 H   0  0  0  0  0  0  0  0  0  0  0  0
   56.1266   -4.5215   -9.1664 C   0  0  0  0  0  0  0  0  0  0  0  0
   55.4590   -3.7291  -10.0728 C   0  0  0  0  0  0  0  0  0  0  0  0
   54.1078   -3.3978   -9.9603 C   0  0  0  0  0  0  0  0  0  0  0  0
   53.4361   -3.9000   -8.8826 C   0  0  0  0  0  0  0  0  0  0  0  0
   54.0938   -4.7126   -7.9400 C   0  0  0  0  0  0  0  0  0  0  0  0
   55.4260   -5.0246   -8.0730 C   0  0  0  0  0  0  0  0  0  0  0  0
   60.4239   -7.5356   -9.7390 C   0  0  0  0  0  0  0  0  0  0  0  0
   59.9090   -6.2162   -9.5524 N   0  0  0  0  0  0  0  0  0  0  0  0
   59.4351   -5.5473  -10.6923 C   0  0  0  0  0  0  0  0  0  0  0  0
   57.9913   -5.1452  -10.6811 C   0  0  0  0  0  0  0  0  0  0  0  0
   57.4706   -4.8171   -9.3988 N   0  0  0  0  0  0  0  0  0  0  0  0
   58.3859   -4.7743   -8.2700 C   0  0  0  0  0  0  0  0  0  0  0  0
   59.2658   -5.9655   -8.3203 C   0  0  0  0  0  0  0  0  0  0  0  0
   56.1259   -5.8074   -7.1206 N   0  0  0  0  0  0  0  0  0  0  0  0
   56.3617   -5.5479   -5.7816 C   0  0  0  0  0  0  0  0  0  0  0  0
   57.1452   -6.5497   -4.9727 C   0  0  0  0  0  0  0  0  0  0  0  0
   55.9863   -4.5487   -5.1594 O   0  0  0  0  0  0  0  0  0  0  0  0
   56.5447   -6.7281   -7.4932 H   0  0  0  0  0  0  0  0  0  0  0  0
 28 29  1  0  0  0
 29 30  1  0  0  0
 30 31  1  0  0  0
 31 32  1  0  0  0
 32 33  1  0  0  0
 33 34  1  0  0  0
 32 22  1  0  0  0
 22 23  2  0  0  0
 23 24  1  0  0  0
 24 25  2  0  0  0
 25  1  1  0  0  0
  1  3  1  0  0  0
  3  4  2  0  0  0
  4  5  1  0  0  0
  5  6  2  0  0  0
  6  7  1  0  0  0
  7  8  1  0  0  0
  8  9  1  0  0  0
  9 10  1  0  0  0
 10 11  2  0  0  0
 11 12  1  0  0  0
 12 13  1  0  0  0
 12 14  1  0  0  0
 14 15  1  0  0  0
 15 16  2  0  0  0
 10 17  1  0  0  0
 17 18  1  0  0  0
 17 19  2  0  0  0
 25 26  1  0  0  0
 26 27  2  0  0  0
 27 35  1  0  0  0
 35 36  1  0  0  0
 36 37  1  0  0  0
 36 38  2  0  0  0
 34 29  1  0  0  0
 27 22  1  0  0  0
 16  3  1  0  0  0
 15  6  1  0  0  0
 14  9  2  0  0  0
  1  2  1  0  0  0
 18 20  1  0  0  0
 18 21  1  0  0  0
 35 39  1  0  0  0
M  END
> <minimizedAffinity>
-8.83779

> <CNNscore>
0.4424195588

> <CNNaffinity>
7.5302796364

> <CNN_VS>
3.3315429688

> <CNNaffinity_variance>
0.1587480307

$$$$
[H]c1nc(N([H])c2c([H])c([H])c(N3C([H])([H])C([H])([H])N(C([H])([H])[H])C([H])([H])C3([H])[H])c(N([H])C(=O)C([H])([H])[H])c2[H])nc2c1C([H])([H])C([H])([H])c1c(C(=O)N([H])[H])nn(C([H])([H])[H])c1-2


 39 43  0  0  0  0  0  0  0  0999 V2000
   55.3284   -3.9736  -10.1738 N   0  0  0  0  0  0  0  0  0  0  0  0
   54.4835   -3.4391  -10.5983 H   0  0  0  0  0  0  0  0  0  0  0  0
   55.0839   -4.5590   -8.9257 C   0  0  0  0  0  0  0  0  0  0  0  0
   55.9355   -5.3275   -8.2577 N   0  0  0  0  0  0  0  0  0  0  0  0
   55.6970   -5.8837   -7.0587 C   0  0  0  0  0  0  0  0  0  0  0  0
   54.4804   -5.6662   -6.4315 C   0  0  0  0  0  0  0  0  0  0  0  0
   54.2696   -6.2942   -5.1177 C   0  0  0  0  0  0  0  0  0  0  0  0
   52.9419   -6.0420   -4.5028 C   0  0  0  0  0  0  0  0  0  0  0  0
   52.0315   -5.1774   -5.2742 C   0  0  0  0  0  0  0  0  0  0  0  0
   50.7356   -4.7620   -4.9284 C   0  0  0  0  0  0  0  0  0  0  0  0
   50.3210   -3.9974   -5.9433 N   0  0  0  0  0  0  0  0  0  0  0  0
   51.2194   -3.8953   -6.8795 N   0  0  0  0  0  0  0  0  0  0  0  0
   51.1137   -3.1462   -8.1298 C   0  0  0  0  0  0  0  0  0  0  0  0
   52.2897   -4.6147   -6.4945 C   0  0  0  0  0  0  0  0  0  0  0  0
   53.5846   -4.8770   -7.1005 C   0  0  0  0  0  0  0  0  0  0  0  0
   53.8837   -4.3516   -8.2941 N   0  0  0  0  0  0  0  0  0  0  0  0
   50.0067   -5.0903   -3.7279 C   0  0  0  0  0  0  0  0  0  0  0  0
   48.7088   -4.5668   -3.5214 N   0  0  0  0  0  0  0  0  0  0  0  0
   50.5121   -5.8331   -2.8702 O   0  0  0  0  0  0  0  0  0  0  0  0
   48.5963   -3.5448   -3.3642 H   0  0  0  0  0  0  0  0  0  0  0  0
   47.8482   -5.1746   -3.5212 H   0  0  0  0  0  0  0  0  0  0  0  0
   58.7642   -3.9991  -12.5637 C   0  0  0  0  0  0  0  0  0  0  0  0
   58.8173   -4.3578  -11.2358 C   0  0  0  0  0  0  0  0  0  0  0  0
   57.7057   -4.3597  -10.3917 C   0  0  0  0  0  0  0  0  0  0  0  0
   56.5133   -3.9814  -10.9394 C   0  0  0  0  0  0  0  0  0  0  0  0
   56.4299   -3.6100  -12.2945 C   0  0  0  0  0  0  0  0  0  0  0  0
   57.5397   -3.6165  -13.1057 C   0  0  0  0  0  0  0  0  0  0  0  0
   63.6271   -2.5078  -13.9807 C   0  0  0  0  0  0  0  0  0  0  0  0
   62.4490   -3.2308  -14.3413 N   0  0  0  0  0  0  0  0  0  0  0  0
   62.3012   -4.5206  -13.8065 C   0  0  0  0  0  0  0  0  0  0  0  0
   61.0977   -4.7544  -12.9445 C   0  0  0  0  0  0  0  0  0  0  0  0
   59.9469   -4.0000  -13.3048 N   0  0  0  0  0  0  0  0  0  0  0  0
   59.9971   -3.1958  -14.5149 C   0  0  0  0  0  0  0  0  0  0  0  0
   61.2834   -2.4611  -14.5497 C   0  0  0  0  0  0  0  0  0  0  0  0
   57.4810   -3.2860  -14.4831 N   0  0  0  0  0  0  0  0  0  0  0  0
   56.6865   -3.8291  -15.4779 C   0  0  0  0  0  0  0  0  0  0  0  0
   56.8156   -3.2998  -16.8832 C   0  0  0  0  0  0  0  0  0  0  0  0
   55.8561   -4.7320  -15.3308 O   0  0  0  0  0  0  0  0  0  0  0  0
   58.1588   -2.5120  -14.8047 H   0  0  0  0  0  0  0  0  0  0  0  0
 28 29  1  0  0  0
 29 30  1  0  0  0
 30 31  1  0  0  0
 31 32  1  0  0  0
 32 33  1  0  0  0
 33 34  1  0  0  0
 32 22  1  0  0  0
 22 23  2  0  0  0
 23 24  1  0  0  0
 24 25  2  0  0  0
 25  1  1  0  0  0
  1  3  1  0  0  0
  3  4  2  0  0  0
  4  5  1  0  0  0
  5  6  2  0  0  0
  6  7  1  0  0  0
  7  8  1  0  0  0
  8  9  1  0  0  0
  9 10  1  0  0  0
 10 11  2  0  0  0
 11 12  1  0  0  0
 12 13  1  0  0  0
 12 14  1  0  0  0
 14 15  1  0  0  0
 15 16  2  0  0  0
 10 17  1  0  0  0
 17 18  1  0  0  0
 17 19  2  0  0  0
 25 26  1  0  0  0
 26 27  2  0  0  0
 27 35  1  0  0  0
 35 36  1  0  0  0
 36 37  1  0  0  0
 36 38  2  0  0  0
 34 29  1  0  0  0
 27 22  1  0  0  0
 16  3  1  0  0  0
 15  6  1  0  0  0
 14  9  2  0  0  0
  1  2  1  0  0  0
 18 20  1  0  0  0
 18 21  1  0  0  0
 35 39  1  0  0  0
M  END
> <minimizedAffinity>
-8.08378

> <CNNscore>
0.4080076516

> <CNNaffinity>
7.0580201149

> <CNN_VS>
2.8797261715

> <CNNaffinity_variance>
0.1206583828

$$$$
[H]c1nc(N([H])c2c([H])c([H])c(N3C([H])([H])C([H])([H])N(C([H])([H])[H])C([H])([H])C3([H])[H])c(N([H])C(=O)C([H])([H])[H])c2[H])nc2c1C([H])([H])C([H])([H])c1c(C(=O)N([H])[H])nn(C([H])([H])[H])c1-2


 39 43  0  0  0  0  0  0  0  0999 V2000
   58.2690   -4.9758   -8.3336 N   0  0  0  0  0  0  0  0  0  0  0  0
   58.3995   -3.9285   -8.5903 H   0  0  0  0  0  0  0  0  0  0  0  0
   57.1417   -5.2507   -7.5501 C   0  0  0  0  0  0  0  0  0  0  0  0
   57.1195   -6.0486   -6.4895 N   0  0  0  0  0  0  0  0  0  0  0  0
   56.0357   -6.3060   -5.7392 C   0  0  0  0  0  0  0  0  0  0  0  0
   54.8236   -5.7150   -6.0594 C   0  0  0  0  0  0  0  0  0  0  0  0
   53.6673   -6.0259   -5.2043 C   0  0  0  0  0  0  0  0  0  0  0  0
   52.3924   -5.3797   -5.6064 C   0  0  0  0  0  0  0  0  0  0  0  0
   52.4645   -4.4963   -6.7836 C   0  0  0  0  0  0  0  0  0  0  0  0
   51.4282   -3.7508   -7.3682 C   0  0  0  0  0  0  0  0  0  0  0  0
   51.9832   -3.1168   -8.4057 N   0  0  0  0  0  0  0  0  0  0  0  0
   53.2500   -3.3895   -8.5266 N   0  0  0  0  0  0  0  0  0  0  0  0
   54.1720   -2.8817   -9.5404 C   0  0  0  0  0  0  0  0  0  0  0  0
   53.5777   -4.2408   -7.5371 C   0  0  0  0  0  0  0  0  0  0  0  0
   54.8204   -4.8879   -7.1497 C   0  0  0  0  0  0  0  0  0  0  0  0
   55.9358   -4.6722   -7.8564 N   0  0  0  0  0  0  0  0  0  0  0  0
   50.0535   -3.6825   -6.9369 C   0  0  0  0  0  0  0  0  0  0  0  0
   49.5169   -2.4593   -6.4709 N   0  0  0  0  0  0  0  0  0  0  0  0
   49.3338   -4.6942   -6.9720 O   0  0  0  0  0  0  0  0  0  0  0  0
   49.8653   -2.0650   -5.5737 H   0  0  0  0  0  0  0  0  0  0  0  0
   48.7755   -1.9299   -7.0002 H   0  0  0  0  0  0  0  0  0  0  0  0
   61.2681   -7.5577   -9.6961 C   0  0  0  0  0  0  0  0  0  0  0  0
   60.1109   -7.3665  -10.4167 C   0  0  0  0  0  0  0  0  0  0  0  0
   59.0760   -6.5247  -10.0062 C   0  0  0  0  0  0  0  0  0  0  0  0
   59.2476   -5.8670   -8.8218 C   0  0  0  0  0  0  0  0  0  0  0  0
   60.4209   -6.0434   -8.0645 C   0  0  0  0  0  0  0  0  0  0  0  0
   61.4263   -6.8784   -8.4906 C   0  0  0  0  0  0  0  0  0  0  0  0
   65.7327  -10.3763   -9.7457 C   0  0  0  0  0  0  0  0  0  0  0  0
   64.6227   -9.8874  -10.5004 N   0  0  0  0  0  0  0  0  0  0  0  0
   63.4151  -10.5958  -10.3939 C   0  0  0  0  0  0  0  0  0  0  0  0
   62.2378   -9.8365   -9.8613 C   0  0  0  0  0  0  0  0  0  0  0  0
   62.2213   -8.4517  -10.1859 N   0  0  0  0  0  0  0  0  0  0  0  0
   63.2423   -7.9390  -11.0850 C   0  0  0  0  0  0  0  0  0  0  0  0
   64.5577   -8.4881  -10.6802 C   0  0  0  0  0  0  0  0  0  0  0  0
   62.6360   -7.0469   -7.7707 N   0  0  0  0  0  0  0  0  0  0  0  0
   63.7747   -6.2601   -7.7813 C   0  0  0  0  0  0  0  0  0  0  0  0
   64.9436   -6.6592   -6.9176 C   0  0  0  0  0  0  0  0  0  0  0  0
   63.9398   -5.2321   -8.4465 O   0  0  0  0  0  0  0  0  0  0  0  0
   62.6814   -7.9163   -7.1351 H   0  0  0  0  0  0  0  0  0  0  0  0
 28 29  1  0  0  0
 29 30  1  0  0  0
 30 31  1  0  0  0
 31 32  1  0  0  0
 32 33  1  0  0  0
 33 34  1  0  0  0
 32 22  1  0  0  0
 22 23  2  0  0  0
 23 24  1  0  0  0
 24 25  2  0  0  0
 25  1  1  0  0  0
  1  3  1  0  0  0
  3  4  2  0  0  0
  4  5  1  0  0  0
  5  6  2  0  0  0
  6  7  1  0  0  0
  7  8  1  0  0  0
  8  9  1  0  0  0
  9 10  1  0  0  0
 10 11  2  0  0  0
 11 12  1  0  0  0
 12 13  1  0  0  0
 12 14  1  0  0  0
 14 15  1  0  0  0
 15 16  2  0  0  0
 10 17  1  0  0  0
 17 18  1  0  0  0
 17 19  2  0  0  0
 25 26  1  0  0  0
 26 27  2  0  0  0
 27 35  1  0  0  0
 35 36  1  0  0  0
 36 37  1  0  0  0
 36 38  2  0  0  0
 34 29  1  0  0  0
 27 22  1  0  0  0
 16  3  1  0  0  0
 15  6  1  0  0  0
 14  9  2  0  0  0
  1  2  1  0  0  0
 18 20  1  0  0  0
 18 21  1  0  0  0
 35 39  1  0  0  0
M  END
> <minimizedAffinity>
-6.11451

> <CNNscore>
0.3806150258

> <CNNaffinity>
6.7048463821

> <CNN_VS>
2.5519652367

> <CNNaffinity_variance>
0.1572874337

$$$$
[H]c1nc(N([H])c2c([H])c([H])c(N3C([H])([H])C([H])([H])N(C([H])([H])C([H])([H])[H])C([H])([H])C3([H])[H])c([H])c2[H])nc(N([H])c2c([H])c([H])c([H])c([H])c2S(=O)(=O)C([H])(C([H])([H])[H])C([H])([H])[H])c1F


 37 40  0  0  0  0  0  0  0  0999 V2000
   53.9786   -3.3253   -9.1088 C   0  0  0  0  0  0  0  0  0  0  0  0
   53.0294   -2.3804   -9.1588 N   0  0  0  0  0  0  0  0  0  0  0  0
   51.9057   -2.4341   -8.4367 C   0  0  0  0  0  0  0  0  0  0  0  0
   51.6968   -3.4885   -7.6061 C   0  0  0  0  0  0  0  0  0  0  0  0
   50.5567   -3.5249   -6.8853 F   0  0  0  0  0  0  0  0  0  0  0  0
   52.6602   -4.5176   -7.5084 C   0  0  0  0  0  0  0  0  0  0  0  0
   53.7230   -4.3443   -8.2733 N   0  0  0  0  0  0  0  0  0  0  0  0
   55.1742   -3.3400   -9.8301 N   0  0  0  0  0  0  0  0  0  0  0  0
   55.2340   -2.6604  -10.6592 H   0  0  0  0  0  0  0  0  0  0  0  0
   58.7019   -5.6587   -9.4272 C   0  0  0  0  0  0  0  0  0  0  0  0
   57.9889   -5.3099   -8.3096 C   0  0  0  0  0  0  0  0  0  0  0  0
   56.8124   -4.5462   -8.4335 C   0  0  0  0  0  0  0  0  0  0  0  0
   56.3303   -4.1218   -9.6429 C   0  0  0  0  0  0  0  0  0  0  0  0
   57.1028   -4.5095  -10.7549 C   0  0  0  0  0  0  0  0  0  0  0  0
   58.2525   -5.2545  -10.6489 C   0  0  0  0  0  0  0  0  0  0  0  0
   62.3980   -7.7730   -9.2304 N   0  0  0  0  0  0  0  0  0  0  0  0
   61.1267   -8.4484   -9.3628 C   0  0  0  0  0  0  0  0  0  0  0  0
   60.1653   -7.5703  -10.1415 C   0  0  0  0  0  0  0  0  0  0  0  0
   59.8700   -6.4162   -9.2680 N   0  0  0  0  0  0  0  0  0  0  0  0
   60.9059   -6.1880   -8.2797 C   0  0  0  0  0  0  0  0  0  0  0  0
   62.2361   -6.3538   -8.9899 C   0  0  0  0  0  0  0  0  0  0  0  0
   63.7446   -6.7596  -10.9468 C   0  0  0  0  0  0  0  0  0  0  0  0
   63.2824   -8.0433  -10.3386 C   0  0  0  0  0  0  0  0  0  0  0  0
   52.3696   -5.5651   -6.6341 N   0  0  0  0  0  0  0  0  0  0  0  0
   52.2608   -6.5506   -7.0728 H   0  0  0  0  0  0  0  0  0  0  0  0
   52.1851   -5.5704   -5.2375 C   0  0  0  0  0  0  0  0  0  0  0  0
   50.9552   -5.3174   -4.6927 C   0  0  0  0  0  0  0  0  0  0  0  0
   50.7750   -5.3264   -3.2941 C   0  0  0  0  0  0  0  0  0  0  0  0
   51.8403   -5.5910   -2.4700 C   0  0  0  0  0  0  0  0  0  0  0  0
   53.0882   -5.8493   -2.9833 C   0  0  0  0  0  0  0  0  0  0  0  0
   53.2377   -5.8340   -4.3599 C   0  0  0  0  0  0  0  0  0  0  0  0
   54.8146   -6.1635   -5.0197 S   0  0  0  0  0  0  0  0  0  0  0  0
   54.7824   -7.1054   -6.1666 O   0  0  0  0  0  0  0  0  0  0  0  0
   55.4659   -4.8692   -5.4110 O   0  0  0  0  0  0  0  0  0  0  0  0
   55.8806   -6.8968   -3.7878 C   0  0  0  0  0  0  0  0  0  0  0  0
   55.3363   -8.3232   -3.5946 C   0  0  0  0  0  0  0  0  0  0  0  0
   57.2991   -7.0151   -4.2287 C   0  0  0  0  0  0  0  0  0  0  0  0
 22 23  1  0  0  0
 23 16  1  0  0  0
 16 17  1  0  0  0
 17 18  1  0  0  0
 18 19  1  0  0  0
 19 20  1  0  0  0
 20 21  1  0  0  0
 19 10  1  0  0  0
 10 11  2  0  0  0
 11 12  1  0  0  0
 12 13  2  0  0  0
 13  8  1  0  0  0
  8  1  1  0  0  0
  1  2  2  0  0  0
  2  3  1  0  0  0
  3  4  2  0  0  0
  4  5  1  0  0  0
  4  6  1  0  0  0
  6 24  1  0  0  0
 24 26  1  0  0  0
 26 27  2  0  0  0
 27 28  1  0  0  0
 28 29  2  0  0  0
 29 30  1  0  0  0
 30 31  2  0  0  0
 31 32  1  0  0  0
 32 33  2  0  0  0
 32 34  2  0  0  0
 32 35  1  0  0  0
 35 36  1  0  0  0
 35 37  1  0  0  0
  6  7  2  0  0  0
 13 14  1  0  0  0
 14 15  2  0  0  0
 21 16  1  0  0  0
 15 10  1  0  0  0
  7  1  1  0  0  0
 31 26  1  0  0  0
  8  9  1  0  0  0
 24 25  1  0  0  0
M  END
> <minimizedAffinity>
-9.23029

> <CNNscore>
0.8663769960

> <CNNaffinity>
7.8056907654

> <CNN_VS>
6.7626709938

> <CNNaffinity_variance>
0.0489779860

$$$$
[H]c1nc(N([H])c2c([H])c([H])c(N3C([H])([H])C([H])([H])N(C([H])([H])C([H])([H])[H])C([H])([H])C3([H])[H])c([H])c2[H])nc(N([H])c2c([H])c([H])c([H])c([H])c2S(=O)(=O)C([H])(C([H])([H])[H])C([H])([H])[H])c1F


 37 40  0  0  0  0  0  0  0  0999 V2000
   54.2229   -3.4872   -9.3059 C   0  0  0  0  0  0  0  0  0  0  0  0
   53.2186   -2.6010   -9.3555 N   0  0  0  0  0  0  0  0  0  0  0  0
   52.1647   -2.6438   -8.5342 C   0  0  0  0  0  0  0  0  0  0  0  0
   52.0890   -3.6246   -7.5974 C   0  0  0  0  0  0  0  0  0  0  0  0
   51.0176   -3.6512   -6.7776 F   0  0  0  0  0  0  0  0  0  0  0  0
   53.1164   -4.5893   -7.4943 C   0  0  0  0  0  0  0  0  0  0  0  0
   54.0991   -4.4346   -8.3632 N   0  0  0  0  0  0  0  0  0  0  0  0
   55.3526   -3.5085  -10.1265 N   0  0  0  0  0  0  0  0  0  0  0  0
   55.3110   -2.8904  -11.0036 H   0  0  0  0  0  0  0  0  0  0  0  0
   58.9296   -5.7104   -9.5440 C   0  0  0  0  0  0  0  0  0  0  0  0
   58.5341   -5.3841  -10.8153 C   0  0  0  0  0  0  0  0  0  0  0  0
   57.3517   -4.6471  -11.0188 C   0  0  0  0  0  0  0  0  0  0  0  0
   56.5546   -4.2285   -9.9870 C   0  0  0  0  0  0  0  0  0  0  0  0
   57.0100   -4.5919   -8.7047 C   0  0  0  0  0  0  0  0  0  0  0  0
   58.1616   -5.3104   -8.4914 C   0  0  0  0  0  0  0  0  0  0  0  0
   62.3618   -8.1052   -8.7349 N   0  0  0  0  0  0  0  0  0  0  0  0
   62.4363   -6.6680   -8.8714 C   0  0  0  0  0  0  0  0  0  0  0  0
   61.1371   -6.0460   -8.3950 C   0  0  0  0  0  0  0  0  0  0  0  0
   60.1096   -6.4476   -9.3774 N   0  0  0  0  0  0  0  0  0  0  0  0
   60.4731   -7.6498  -10.1016 C   0  0  0  0  0  0  0  0  0  0  0  0
   61.0531   -8.6168   -9.0867 C   0  0  0  0  0  0  0  0  0  0  0  0
   63.6698   -9.7599   -7.5783 C   0  0  0  0  0  0  0  0  0  0  0  0
   62.7952   -8.5574   -7.4345 C   0  0  0  0  0  0  0  0  0  0  0  0
   52.9627   -5.5633   -6.5075 N   0  0  0  0  0  0  0  0  0  0  0  0
   51.9553   -5.9224   -6.3295 H   0  0  0  0  0  0  0  0  0  0  0  0
   53.9139   -6.1824   -5.6730 C   0  0  0  0  0  0  0  0  0  0  0  0
   55.2113   -6.3342   -6.0822 C   0  0  0  0  0  0  0  0  0  0  0  0
   56.1603   -6.9522   -5.2421 C   0  0  0  0  0  0  0  0  0  0  0  0
   55.7826   -7.4061   -4.0030 C   0  0  0  0  0  0  0  0  0  0  0  0
   54.4891   -7.2698   -3.5608 C   0  0  0  0  0  0  0  0  0  0  0  0
   53.5772   -6.6595   -4.4054 C   0  0  0  0  0  0  0  0  0  0  0  0
   51.9364   -6.4793   -3.8523 S   0  0  0  0  0  0  0  0  0  0  0  0
   50.9408   -6.5288   -4.9523 O   0  0  0  0  0  0  0  0  0  0  0  0
   51.6449   -7.5307   -2.8218 O   0  0  0  0  0  0  0  0  0  0  0  0
   51.7097   -4.9096   -3.0299 C   0  0  0  0  0  0  0  0  0  0  0  0
   50.1850   -4.7060   -2.9832 C   0  0  0  0  0  0  0  0  0  0  0  0
   52.2054   -4.9017   -1.6247 C   0  0  0  0  0  0  0  0  0  0  0  0
 22 23  1  0  0  0
 23 16  1  0  0  0
 16 17  1  0  0  0
 17 18  1  0  0  0
 18 19  1  0  0  0
 19 20  1  0  0  0
 20 21  1  0  0  0
 19 10  1  0  0  0
 10 11  2  0  0  0
 11 12  1  0  0  0
 12 13  2  0  0  0
 13  8  1  0  0  0
  8  1  1  0  0  0
  1  2  2  0  0  0
  2  3  1  0  0  0
  3  4  2  0  0  0
  4  5  1  0  0  0
  4  6  1  0  0  0
  6 24  1  0  0  0
 24 26  1  0  0  0
 26 27  2  0  0  0
 27 28  1  0  0  0
 28 29  2  0  0  0
 29 30  1  0  0  0
 30 31  2  0  0  0
 31 32  1  0  0  0
 32 33  2  0  0  0
 32 34  2  0  0  0
 32 35  1  0  0  0
 35 36  1  0  0  0
 35 37  1  0  0  0
  6  7  2  0  0  0
 13 14  1  0  0  0
 14 15  2  0  0  0
 21 16  1  0  0  0
 15 10  1  0  0  0
  7  1  1  0  0  0
 31 26  1  0  0  0
  8  9  1  0  0  0
 24 25  1  0  0  0
M  END
> <minimizedAffinity>
-8.15507

> <CNNscore>
0.7660504580

> <CNNaffinity>
7.7807555199

> <CNN_VS>
5.9604511261

> <CNNaffinity_variance>
0.0337531492

$$$$
[H]c1nc(N([H])c2c([H])c([H])c(N3C([H])([H])C([H])([H])N(C([H])([H])C([H])([H])[H])C([H])([H])C3([H])[H])c([H])c2[H])nc(N([H])c2c([H])c([H])c([H])c([H])c2S(=O)(=O)C([H])(C([H])([H])[H])C([H])([H])[H])c1F


 37 40  0  0  0  0  0  0  0  0999 V2000
   56.2177   -4.1400  -11.0084 C   0  0  0  0  0  0  0  0  0  0  0  0
   57.4085   -4.5234  -10.5274 N   0  0  0  0  0  0  0  0  0  0  0  0
   57.5943   -4.9152   -9.2629 C   0  0  0  0  0  0  0  0  0  0  0  0
   56.5384   -4.9328   -8.4084 C   0  0  0  0  0  0  0  0  0  0  0  0
   56.7458   -5.3314   -7.1361 F   0  0  0  0  0  0  0  0  0  0  0  0
   55.2565   -4.5401   -8.8550 C   0  0  0  0  0  0  0  0  0  0  0  0
   55.2089   -4.1760  -10.1238 N   0  0  0  0  0  0  0  0  0  0  0  0
   55.9453   -3.7188  -12.3116 N   0  0  0  0  0  0  0  0  0  0  0  0
   54.9319   -3.4254  -12.5111 H   0  0  0  0  0  0  0  0  0  0  0  0
   58.3886   -3.3900  -15.7620 C   0  0  0  0  0  0  0  0  0  0  0  0
   58.9692   -3.4159  -14.5205 C   0  0  0  0  0  0  0  0  0  0  0  0
   58.1670   -3.5321  -13.3691 C   0  0  0  0  0  0  0  0  0  0  0  0
   56.8018   -3.6222  -13.4252 C   0  0  0  0  0  0  0  0  0  0  0  0
   56.2613   -3.5907  -14.7254 C   0  0  0  0  0  0  0  0  0  0  0  0
   57.0318   -3.4780  -15.8575 C   0  0  0  0  0  0  0  0  0  0  0  0
   61.1461   -2.8407  -18.9659 N   0  0  0  0  0  0  0  0  0  0  0  0
   59.7673   -2.4146  -19.0505 C   0  0  0  0  0  0  0  0  0  0  0  0
   59.2736   -2.0199  -17.6713 C   0  0  0  0  0  0  0  0  0  0  0  0
   59.2160   -3.2701  -16.8867 N   0  0  0  0  0  0  0  0  0  0  0  0
   60.0925   -4.2977  -17.4136 C   0  0  0  0  0  0  0  0  0  0  0  0
   61.4013   -3.6190  -17.7712 C   0  0  0  0  0  0  0  0  0  0  0  0
   63.1627   -1.8571  -18.0988 C   0  0  0  0  0  0  0  0  0  0  0  0
   62.0712   -1.7425  -19.1121 C   0  0  0  0  0  0  0  0  0  0  0  0
   54.2262   -4.5855   -7.9156 N   0  0  0  0  0  0  0  0  0  0  0  0
   54.3350   -5.2990   -7.1067 H   0  0  0  0  0  0  0  0  0  0  0  0
   53.0301   -3.8463   -7.8290 C   0  0  0  0  0  0  0  0  0  0  0  0
   52.8971   -2.6503   -8.4813 C   0  0  0  0  0  0  0  0  0  0  0  0
   51.6968   -1.9155   -8.3935 C   0  0  0  0  0  0  0  0  0  0  0  0
   50.6514   -2.4015   -7.6485 C   0  0  0  0  0  0  0  0  0  0  0  0
   50.7509   -3.5983   -6.9814 C   0  0  0  0  0  0  0  0  0  0  0  0
   51.9404   -4.2996   -7.0841 C   0  0  0  0  0  0  0  0  0  0  0  0
   52.0746   -5.8189   -6.2448 S   0  0  0  0  0  0  0  0  0  0  0  0
   50.7709   -6.3319   -5.7540 O   0  0  0  0  0  0  0  0  0  0  0  0
   52.7380   -6.8217   -7.1430 O   0  0  0  0  0  0  0  0  0  0  0  0
   53.1333   -5.6654   -4.8139 C   0  0  0  0  0  0  0  0  0  0  0  0
   52.2418   -6.0533   -3.6210 C   0  0  0  0  0  0  0  0  0  0  0  0
   54.2905   -6.6041   -4.8316 C   0  0  0  0  0  0  0  0  0  0  0  0
 22 23  1  0  0  0
 23 16  1  0  0  0
 16 17  1  0  0  0
 17 18  1  0  0  0
 18 19  1  0  0  0
 19 20  1  0  0  0
 20 21  1  0  0  0
 19 10  1  0  0  0
 10 11  2  0  0  0
 11 12  1  0  0  0
 12 13  2  0  0  0
 13  8  1  0  0  0
  8  1  1  0  0  0
  1  2  2  0  0  0
  2  3  1  0  0  0
  3  4  2  0  0  0
  4  5  1  0  0  0
  4  6  1  0  0  0
  6 24  1  0  0  0
 24 26  1  0  0  0
 26 27  2  0  0  0
 27 28  1  0  0  0
 28 29  2  0  0  0
 29 30  1  0  0  0
 30 31  2  0  0  0
 31 32  1  0  0  0
 32 33  2  0  0  0
 32 34  2  0  0  0
 32 35  1  0  0  0
 35 36  1  0  0  0
 35 37  1  0  0  0
  6  7  2  0  0  0
 13 14  1  0  0  0
 14 15  2  0  0  0
 21 16  1  0  0  0
 15 10  1  0  0  0
  7  1  1  0  0  0
 31 26  1  0  0  0
  8  9  1  0  0  0
 24 25  1  0  0  0
M  END
> <minimizedAffinity>
-8.20299

> <CNNscore>
0.4782015085

> <CNNaffinity>
7.0970444679

> <CNN_VS>
3.3938174248

> <CNNaffinity_variance>
0.0644698590

$$$$
[H]c1nc(N([H])c2c([H])c([H])c(N3C([H])([H])C([H])([H])N(C([H])([H])C([H])([H])[H])C([H])([H])C3([H])[H])c([H])c2[H])nc(N([H])c2c([H])c([H])c([H])c([H])c2S(=O)(=O)C([H])(C([H])([H])[H])C([H])([H])[H])c1F


 37 40  0  0  0  0  0  0  0  0999 V2000
   54.8343   -4.1380   -8.9871 C   0  0  0  0  0  0  0  0  0  0  0  0
   54.1127   -3.0319   -9.2153 N   0  0  0  0  0  0  0  0  0  0  0  0
   52.9210   -2.8075   -8.6528 C   0  0  0  0  0  0  0  0  0  0  0  0
   52.3987   -3.7325   -7.8062 C   0  0  0  0  0  0  0  0  0  0  0  0
   51.1947   -3.4881   -7.2481 F   0  0  0  0  0  0  0  0  0  0  0  0
   53.1109   -4.9201   -7.5245 C   0  0  0  0  0  0  0  0  0  0  0  0
   54.2734   -5.0188   -8.1438 N   0  0  0  0  0  0  0  0  0  0  0  0
   56.0818   -4.4432   -9.5353 N   0  0  0  0  0  0  0  0  0  0  0  0
   56.7837   -4.9191   -8.8765 H   0  0  0  0  0  0  0  0  0  0  0  0
   57.4088   -3.7219  -13.4979 C   0  0  0  0  0  0  0  0  0  0  0  0
   58.3256   -3.8196  -12.4834 C   0  0  0  0  0  0  0  0  0  0  0  0
   57.8955   -4.0660  -11.1655 C   0  0  0  0  0  0  0  0  0  0  0  0
   56.5753   -4.2166  -10.8345 C   0  0  0  0  0  0  0  0  0  0  0  0
   55.6797   -4.1068  -11.9160 C   0  0  0  0  0  0  0  0  0  0  0  0
   56.0851   -3.8668  -13.2067 C   0  0  0  0  0  0  0  0  0  0  0  0
   58.8895   -3.3281  -17.4757 N   0  0  0  0  0  0  0  0  0  0  0  0
   59.4119   -2.5495  -16.3753 C   0  0  0  0  0  0  0  0  0  0  0  0
   59.3130   -3.3546  -15.0932 C   0  0  0  0  0  0  0  0  0  0  0  0
   57.8706   -3.4726  -14.7973 N   0  0  0  0  0  0  0  0  0  0  0  0
   57.0457   -3.3078  -15.9781 C   0  0  0  0  0  0  0  0  0  0  0  0
   57.7153   -4.0861  -17.0949 C   0  0  0  0  0  0  0  0  0  0  0  0
   59.3354   -5.5041  -18.3988 C   0  0  0  0  0  0  0  0  0  0  0  0
   59.8990   -4.1550  -18.0924 C   0  0  0  0  0  0  0  0  0  0  0  0
   52.5052   -5.8189   -6.6462 N   0  0  0  0  0  0  0  0  0  0  0  0
   52.2912   -6.8090   -7.0326 H   0  0  0  0  0  0  0  0  0  0  0  0
   52.1080   -5.6636   -5.3036 C   0  0  0  0  0  0  0  0  0  0  0  0
   50.8196   -5.3250   -4.9891 C   0  0  0  0  0  0  0  0  0  0  0  0
   50.4263   -5.1733   -3.6435 C   0  0  0  0  0  0  0  0  0  0  0  0
   51.3413   -5.3664   -2.6386 C   0  0  0  0  0  0  0  0  0  0  0  0
   52.6424   -5.7071   -2.9188 C   0  0  0  0  0  0  0  0  0  0  0  0
   53.0022   -5.8495   -4.2483 C   0  0  0  0  0  0  0  0  0  0  0  0
   54.6480   -6.2842   -4.6130 S   0  0  0  0  0  0  0  0  0  0  0  0
   54.7552   -7.3927   -5.5945 O   0  0  0  0  0  0  0  0  0  0  0  0
   55.3832   -5.0693   -5.0986 O   0  0  0  0  0  0  0  0  0  0  0  0
   55.5064   -6.8218   -3.1413 C   0  0  0  0  0  0  0  0  0  0  0  0
   55.4859   -8.3589   -3.2127 C   0  0  0  0  0  0  0  0  0  0  0  0
   56.9334   -6.3948   -3.1003 C   0  0  0  0  0  0  0  0  0  0  0  0
 22 23  1  0  0  0
 23 16  1  0  0  0
 16 17  1  0  0  0
 17 18  1  0  0  0
 18 19  1  0  0  0
 19 20  1  0  0  0
 20 21  1  0  0  0
 19 10  1  0  0  0
 10 11  2  0  0  0
 11 12  1  0  0  0
 12 13  2  0  0  0
 13  8  1  0  0  0
  8  1  1  0  0  0
  1  2  2  0  0  0
  2  3  1  0  0  0
  3  4  2  0  0  0
  4  5  1  0  0  0
  4  6  1  0  0  0
  6 24  1  0  0  0
 24 26  1  0  0  0
 26 27  2  0  0  0
 27 28  1  0  0  0
 28 29  2  0  0  0
 29 30  1  0  0  0
 30 31  2  0  0  0
 31 32  1  0  0  0
 32 33  2  0  0  0
 32 34  2  0  0  0
 32 35  1  0  0  0
 35 36  1  0  0  0
 35 37  1  0  0  0
  6  7  2  0  0  0
 13 14  1  0  0  0
 14 15  2  0  0  0
 21 16  1  0  0  0
 15 10  1  0  0  0
  7  1  1  0  0  0
 31 26  1  0  0  0
  8  9  1  0  0  0
 24 25  1  0  0  0
M  END
> <minimizedAffinity>
-8.44055

> <CNNscore>
0.3608319163

> <CNNaffinity>
7.0906524658

> <CNN_VS>
2.5585336685

> <CNNaffinity_variance>
0.0251513608

$$$$
[H]c1nc(N([H])c2c([H])c([H])c(N3C([H])([H])C([H])([H])N(C([H])([H])C([H])([H])[H])C([H])([H])C3([H])[H])c([H])c2[H])nc(N([H])c2c([H])c([H])c([H])c([H])c2S(=O)(=O)C([H])(C([H])([H])[H])C([H])([H])[H])c1F


 37 40  0  0  0  0  0  0  0  0999 V2000
   55.9693   -4.4582   -9.1611 C   0  0  0  0  0  0  0  0  0  0  0  0
   57.2081   -4.5206   -8.6533 N   0  0  0  0  0  0  0  0  0  0  0  0
   57.5009   -5.1600   -7.5165 C   0  0  0  0  0  0  0  0  0  0  0  0
   56.5096   -5.7830   -6.8278 C   0  0  0  0  0  0  0  0  0  0  0  0
   56.8247   -6.4232   -5.6825 F   0  0  0  0  0  0  0  0  0  0  0  0
   55.1820   -5.7537   -7.3110 C   0  0  0  0  0  0  0  0  0  0  0  0
   55.0279   -5.0896   -8.4423 N   0  0  0  0  0  0  0  0  0  0  0  0
   55.5860   -3.8118  -10.3380 N   0  0  0  0  0  0  0  0  0  0  0  0
   54.6355   -3.3130  -10.3149 H   0  0  0  0  0  0  0  0  0  0  0  0
   57.7541   -3.5425  -13.9726 C   0  0  0  0  0  0  0  0  0  0  0  0
   56.3926   -3.6989  -14.0056 C   0  0  0  0  0  0  0  0  0  0  0  0
   55.6629   -3.7822  -12.8042 C   0  0  0  0  0  0  0  0  0  0  0  0
   56.2568   -3.7141  -11.5722 C   0  0  0  0  0  0  0  0  0  0  0  0
   57.6558   -3.5531  -11.5997 C   0  0  0  0  0  0  0  0  0  0  0  0
   58.3804   -3.4702  -12.7642 C   0  0  0  0  0  0  0  0  0  0  0  0
   59.9189   -3.6811  -17.6420 N   0  0  0  0  0  0  0  0  0  0  0  0
   60.3099   -2.8244  -16.5452 C   0  0  0  0  0  0  0  0  0  0  0  0
   59.9264   -3.4776  -15.2307 C   0  0  0  0  0  0  0  0  0  0  0  0
   58.4499   -3.4667  -15.1866 N   0  0  0  0  0  0  0  0  0  0  0  0
   57.8553   -3.3763  -16.5057 C   0  0  0  0  0  0  0  0  0  0  0  0
   58.6373   -4.3137  -17.4063 C   0  0  0  0  0  0  0  0  0  0  0  0
   60.4299   -5.5883  -19.0159 C   0  0  0  0  0  0  0  0  0  0  0  0
   60.9453   -4.6352  -17.9876 C   0  0  0  0  0  0  0  0  0  0  0  0
   54.2230   -6.4164   -6.5447 N   0  0  0  0  0  0  0  0  0  0  0  0
   53.7454   -7.2771   -6.9991 H   0  0  0  0  0  0  0  0  0  0  0  0
   53.7482   -6.1572   -5.2439 C   0  0  0  0  0  0  0  0  0  0  0  0
   54.5523   -6.3513   -4.1533 C   0  0  0  0  0  0  0  0  0  0  0  0
   54.0732   -6.0878   -2.8535 C   0  0  0  0  0  0  0  0  0  0  0  0
   52.7902   -5.6327   -2.6777 C   0  0  0  0  0  0  0  0  0  0  0  0
   51.9566   -5.4268   -3.7502 C   0  0  0  0  0  0  0  0  0  0  0  0
   52.4519   -5.6935   -5.0155 C   0  0  0  0  0  0  0  0  0  0  0  0
   51.4039   -5.4325   -6.3809 S   0  0  0  0  0  0  0  0  0  0  0  0
   51.8952   -6.0759   -7.6252 O   0  0  0  0  0  0  0  0  0  0  0  0
   50.0231   -5.9127   -6.0418 O   0  0  0  0  0  0  0  0  0  0  0  0
   51.2437   -3.6892   -6.7374 C   0  0  0  0  0  0  0  0  0  0  0  0
   52.0445   -3.4773   -8.0344 C   0  0  0  0  0  0  0  0  0  0  0  0
   49.8398   -3.2672   -7.0045 C   0  0  0  0  0  0  0  0  0  0  0  0
 22 23  1  0  0  0
 23 16  1  0  0  0
 16 17  1  0  0  0
 17 18  1  0  0  0
 18 19  1  0  0  0
 19 20  1  0  0  0
 20 21  1  0  0  0
 19 10  1  0  0  0
 10 11  2  0  0  0
 11 12  1  0  0  0
 12 13  2  0  0  0
 13  8  1  0  0  0
  8  1  1  0  0  0
  1  2  2  0  0  0
  2  3  1  0  0  0
  3  4  2  0  0  0
  4  5  1  0  0  0
  4  6  1  0  0  0
  6 24  1  0  0  0
 24 26  1  0  0  0
 26 27  2  0  0  0
 27 28  1  0  0  0
 28 29  2  0  0  0
 29 30  1  0  0  0
 30 31  2  0  0  0
 31 32  1  0  0  0
 32 33  2  0  0  0
 32 34  2  0  0  0
 32 35  1  0  0  0
 35 36  1  0  0  0
 35 37  1  0  0  0
  6  7  2  0  0  0
 13 14  1  0  0  0
 14 15  2  0  0  0
 21 16  1  0  0  0
 15 10  1  0  0  0
  7  1  1  0  0  0
 31 26  1  0  0  0
  8  9  1  0  0  0
 24 25  1  0  0  0
M  END
> <minimizedAffinity>
-7.43858

> <CNNscore>
0.3467686474

> <CNNaffinity>
7.0995459557

> <CNN_VS>
2.4618999958

> <CNNaffinity_variance>
0.0082825702

$$$$
[H]c1nc(N([H])c2c([H])c([H])c(N3C([H])([H])C([H])([H])N(C([H])([H])C([H])([H])[H])C([H])([H])C3([H])[H])c([H])c2[H])nc(N([H])c2c([H])c([H])c([H])c([H])c2S(=O)(=O)C([H])(C([H])([H])[H])C([H])([H])[H])c1F


 37 40  0  0  0  0  0  0  0  0999 V2000
   56.2627   -4.3424   -9.8467 C   0  0  0  0  0  0  0  0  0  0  0  0
   57.4080   -4.9873   -9.5848 N   0  0  0  0  0  0  0  0  0  0  0  0
   57.6975   -5.5059   -8.3872 C   0  0  0  0  0  0  0  0  0  0  0  0
   56.8012   -5.3843   -7.3737 C   0  0  0  0  0  0  0  0  0  0  0  0
   57.1113   -5.9144   -6.1723 F   0  0  0  0  0  0  0  0  0  0  0  0
   55.5749   -4.7152   -7.5864 C   0  0  0  0  0  0  0  0  0  0  0  0
   55.4127   -4.2502   -8.8120 N   0  0  0  0  0  0  0  0  0  0  0  0
   55.8897   -3.7751  -11.0670 N   0  0  0  0  0  0  0  0  0  0  0  0
   54.9212   -3.3126  -11.0965 H   0  0  0  0  0  0  0  0  0  0  0  0
   57.8560   -3.5665  -14.8184 C   0  0  0  0  0  0  0  0  0  0  0  0
   58.5960   -3.5664  -13.6645 C   0  0  0  0  0  0  0  0  0  0  0  0
   57.9528   -3.6426  -12.4142 C   0  0  0  0  0  0  0  0  0  0  0  0
   56.5915   -3.7181  -12.2864 C   0  0  0  0  0  0  0  0  0  0  0  0
   55.8835   -3.7146  -13.5040 C   0  0  0  0  0  0  0  0  0  0  0  0
   56.4978   -3.6410  -14.7309 C   0  0  0  0  0  0  0  0  0  0  0  0
   60.0709   -3.6403  -18.4598 N   0  0  0  0  0  0  0  0  0  0  0  0
   60.1006   -2.5098  -17.5592 C   0  0  0  0  0  0  0  0  0  0  0  0
   59.9175   -2.9935  -16.1329 C   0  0  0  0  0  0  0  0  0  0  0  0
   58.5276   -3.4861  -16.0457 N   0  0  0  0  0  0  0  0  0  0  0  0
   57.9881   -3.8589  -17.3387 C   0  0  0  0  0  0  0  0  0  0  0  0
   59.0789   -4.6204  -18.0679 C   0  0  0  0  0  0  0  0  0  0  0  0
   61.3496   -5.6670  -18.2515 C   0  0  0  0  0  0  0  0  0  0  0  0
   61.3759   -4.2273  -18.6489 C   0  0  0  0  0  0  0  0  0  0  0  0
   54.7103   -4.6324   -6.4947 N   0  0  0  0  0  0  0  0  0  0  0  0
   55.1458   -4.3276   -5.5499 H   0  0  0  0  0  0  0  0  0  0  0  0
   53.3275   -4.8838   -6.3980 C   0  0  0  0  0  0  0  0  0  0  0  0
   52.4591   -4.3920   -7.3349 C   0  0  0  0  0  0  0  0  0  0  0  0
   51.0762   -4.6486   -7.2350 C   0  0  0  0  0  0  0  0  0  0  0  0
   50.5942   -5.3977   -6.1906 C   0  0  0  0  0  0  0  0  0  0  0  0
   51.4377   -5.9066   -5.2331 C   0  0  0  0  0  0  0  0  0  0  0  0
   52.7910   -5.6396   -5.3547 C   0  0  0  0  0  0  0  0  0  0  0  0
   53.8681   -6.2832   -4.1479 S   0  0  0  0  0  0  0  0  0  0  0  0
   54.6723   -7.4315   -4.6359 O   0  0  0  0  0  0  0  0  0  0  0  0
   54.7582   -5.1845   -3.6448 O   0  0  0  0  0  0  0  0  0  0  0  0
   52.9569   -6.8665   -2.7262 C   0  0  0  0  0  0  0  0  0  0  0  0
   53.8326   -7.9814   -2.1275 C   0  0  0  0  0  0  0  0  0  0  0  0
   52.7744   -5.8272   -1.6741 C   0  0  0  0  0  0  0  0  0  0  0  0
 22 23  1  0  0  0
 23 16  1  0  0  0
 16 17  1  0  0  0
 17 18  1  0  0  0
 18 19  1  0  0  0
 19 20  1  0  0  0
 20 21  1  0  0  0
 19 10  1  0  0  0
 10 11  2  0  0  0
 11 12  1  0  0  0
 12 13  2  0  0  0
 13  8  1  0  0  0
  8  1  1  0  0  0
  1  2  2  0  0  0
  2  3  1  0  0  0
  3  4  2  0  0  0
  4  5  1  0  0  0
  4  6  1  0  0  0
  6 24  1  0  0  0
 24 26  1  0  0  0
 26 27  2  0  0  0
 27 28  1  0  0  0
 28 29  2  0  0  0
 29 30  1  0  0  0
 30 31  2  0  0  0
 31 32  1  0  0  0
 32 33  2  0  0  0
 32 34  2  0  0  0
 32 35  1  0  0  0
 35 36  1  0  0  0
 35 37  1  0  0  0
  6  7  2  0  0  0
 13 14  1  0  0  0
 14 15  2  0  0  0
 21 16  1  0  0  0
 15 10  1  0  0  0
  7  1  1  0  0  0
 31 26  1  0  0  0
  8  9  1  0  0  0
 24 25  1  0  0  0
M  END
> <minimizedAffinity>
-7.62436

> <CNNscore>
0.3310110867

> <CNNaffinity>
6.9430212975

> <CNN_VS>
2.2982170582

> <CNNaffinity_variance>
0.0480602086

$$$$
[H]c1nc(N([H])c2c([H])c([H])c(N3C([H])([H])C([H])([H])N(C([H])([H])C([H])([H])[H])C([H])([H])C3([H])[H])c([H])c2[H])nc(N([H])c2c([H])c([H])c([H])c([H])c2S(=O)(=O)C([H])(C([H])([H])[H])C([H])([H])[H])c1F


 37 40  0  0  0  0  0  0  0  0999 V2000
   58.7340   -5.6382   -9.1463 C   0  0  0  0  0  0  0  0  0  0  0  0
   58.3741   -5.3490  -10.4046 N   0  0  0  0  0  0  0  0  0  0  0  0
   57.2021   -4.7884  -10.7192 C   0  0  0  0  0  0  0  0  0  0  0  0
   56.3194   -4.4894   -9.7309 C   0  0  0  0  0  0  0  0  0  0  0  0
   55.1417   -3.9238  -10.0681 F   0  0  0  0  0  0  0  0  0  0  0  0
   56.6400   -4.7697   -8.3834 C   0  0  0  0  0  0  0  0  0  0  0  0
   57.8266   -5.3230   -8.2088 N   0  0  0  0  0  0  0  0  0  0  0  0
   59.9356   -6.2220   -8.7398 N   0  0  0  0  0  0  0  0  0  0  0  0
   60.2050   -6.0803   -7.7102 H   0  0  0  0  0  0  0  0  0  0  0  0
   62.6476   -8.6263  -10.9415 C   0  0  0  0  0  0  0  0  0  0  0  0
   62.7292   -7.2606  -11.0271 C   0  0  0  0  0  0  0  0  0  0  0  0
   61.8379   -6.4535  -10.2944 C   0  0  0  0  0  0  0  0  0  0  0  0
   60.8679   -6.9742   -9.4799 C   0  0  0  0  0  0  0  0  0  0  0  0
   60.8314   -8.3813   -9.4309 C   0  0  0  0  0  0  0  0  0  0  0  0
   61.6948   -9.1811  -10.1401 C   0  0  0  0  0  0  0  0  0  0  0  0
   65.1170  -11.0159  -13.4638 N   0  0  0  0  0  0  0  0  0  0  0  0
   64.8601  -11.3590  -12.0832 C   0  0  0  0  0  0  0  0  0  0  0  0
   63.4770  -10.8753  -11.6899 C   0  0  0  0  0  0  0  0  0  0  0  0
   63.5478   -9.3998  -11.6865 N   0  0  0  0  0  0  0  0  0  0  0  0
   64.6192   -8.8930  -12.5215 C   0  0  0  0  0  0  0  0  0  0  0  0
   64.6009   -9.7055  -13.8025 C   0  0  0  0  0  0  0  0  0  0  0  0
   63.6970  -11.4515  -15.3559 C   0  0  0  0  0  0  0  0  0  0  0  0
   64.6627  -12.0365  -14.3779 C   0  0  0  0  0  0  0  0  0  0  0  0
   55.6794   -4.4335   -7.4293 N   0  0  0  0  0  0  0  0  0  0  0  0
   55.0929   -3.5420   -7.6209 H   0  0  0  0  0  0  0  0  0  0  0  0
   55.3253   -5.0657   -6.2212 C   0  0  0  0  0  0  0  0  0  0  0  0
   56.2787   -5.3861   -5.2928 C   0  0  0  0  0  0  0  0  0  0  0  0
   55.9188   -6.0166   -4.0839 C   0  0  0  0  0  0  0  0  0  0  0  0
   54.6020   -6.3124   -3.8336 C   0  0  0  0  0  0  0  0  0  0  0  0
   53.6197   -6.0047   -4.7434 C   0  0  0  0  0  0  0  0  0  0  0  0
   54.0003   -5.3861   -5.9224 C   0  0  0  0  0  0  0  0  0  0  0  0
   52.7620   -4.9892   -7.0799 S   0  0  0  0  0  0  0  0  0  0  0  0
   53.0121   -3.7076   -7.7860 O   0  0  0  0  0  0  0  0  0  0  0  0
   52.6215   -6.1184   -8.0586 O   0  0  0  0  0  0  0  0  0  0  0  0
   51.1713   -4.8299   -6.2824 C   0  0  0  0  0  0  0  0  0  0  0  0
   50.6461   -3.4521   -6.7230 C   0  0  0  0  0  0  0  0  0  0  0  0
   50.1813   -5.8500   -6.7295 C   0  0  0  0  0  0  0  0  0  0  0  0
 22 23  1  0  0  0
 23 16  1  0  0  0
 16 17  1  0  0  0
 17 18  1  0  0  0
 18 19  1  0  0  0
 19 20  1  0  0  0
 20 21  1  0  0  0
 19 10  1  0  0  0
 10 11  2  0  0  0
 11 12  1  0  0  0
 12 13  2  0  0  0
 13  8  1  0  0  0
  8  1  1  0  0  0
  1  2  2  0  0  0
  2  3  1  0  0  0
  3  4  2  0  0  0
  4  5  1  0  0  0
  4  6  1  0  0  0
  6 24  1  0  0  0
 24 26  1  0  0  0
 26 27  2  0  0  0
 27 28  1  0  0  0
 28 29  2  0  0  0
 29 30  1  0  0  0
 30 31  2  0  0  0
 31 32  1  0  0  0
 32 33  2  0  0  0
 32 34  2  0  0  0
 32 35  1  0  0  0
 35 36  1  0  0  0
 35 37  1  0  0  0
  6  7  2  0  0  0
 13 14  1  0  0  0
 14 15  2  0  0  0
 21 16  1  0  0  0
 15 10  1  0  0  0
  7  1  1  0  0  0
 31 26  1  0  0  0
  8  9  1  0  0  0
 24 25  1  0  0  0
M  END
> <minimizedAffinity>
-7.64157

> <CNNscore>
0.3280799687

> <CNNaffinity>
6.1163086891

> <CNN_VS>
2.0066382885

> <CNNaffinity_variance>
0.2199308425

$$$$
[H]c1nc(N([H])c2c([H])c([H])c(N3C([H])([H])C([H])([H])N(C([H])([H])C([H])([H])[H])C([H])([H])C3([H])[H])c([H])c2[H])nc(N([H])c2c([H])c([H])c([H])c([H])c2S(=O)(=O)C([H])(C([H])([H])[H])C([H])([H])[H])c1F


 37 40  0  0  0  0  0  0  0  0999 V2000
   55.7426   -4.1675  -10.1847 C   0  0  0  0  0  0  0  0  0  0  0  0
   56.8239   -4.2357   -9.3956 N   0  0  0  0  0  0  0  0  0  0  0  0
   56.7546   -4.4454   -8.0773 C   0  0  0  0  0  0  0  0  0  0  0  0
   55.5396   -4.5994   -7.4896 C   0  0  0  0  0  0  0  0  0  0  0  0
   55.4901   -4.8103   -6.1578 F   0  0  0  0  0  0  0  0  0  0  0  0
   54.3614   -4.5380   -8.2674 C   0  0  0  0  0  0  0  0  0  0  0  0
   54.5681   -4.3260   -9.5547 N   0  0  0  0  0  0  0  0  0  0  0  0
   55.7339   -3.9516  -11.5643 N   0  0  0  0  0  0  0  0  0  0  0  0
   54.7669   -3.8975  -12.0279 H   0  0  0  0  0  0  0  0  0  0  0  0
   59.0790   -3.5507  -14.1397 C   0  0  0  0  0  0  0  0  0  0  0  0
   57.8122   -3.4461  -14.6530 C   0  0  0  0  0  0  0  0  0  0  0  0
   56.6951   -3.5706  -13.8049 C   0  0  0  0  0  0  0  0  0  0  0  0
   56.8101   -3.7973  -12.4593 C   0  0  0  0  0  0  0  0  0  0  0  0
   58.1338   -3.8954  -11.9884 C   0  0  0  0  0  0  0  0  0  0  0  0
   59.2330   -3.7757  -12.8043 C   0  0  0  0  0  0  0  0  0  0  0  0
   62.3897   -3.5408  -16.8247 N   0  0  0  0  0  0  0  0  0  0  0  0
   62.4493   -2.9190  -15.5210 C   0  0  0  0  0  0  0  0  0  0  0  0
   61.5520   -3.6737  -14.5584 C   0  0  0  0  0  0  0  0  0  0  0  0
   60.1684   -3.4252  -15.0122 N   0  0  0  0  0  0  0  0  0  0  0  0
   60.1007   -3.0579  -16.4131 C   0  0  0  0  0  0  0  0  0  0  0  0
   61.0495   -3.9792  -17.1562 C   0  0  0  0  0  0  0  0  0  0  0  0
   62.6744   -5.8899  -17.2575 C   0  0  0  0  0  0  0  0  0  0  0  0
   63.3640   -4.5949  -16.9764 C   0  0  0  0  0  0  0  0  0  0  0  0
   53.1544   -4.7047   -7.5881 N   0  0  0  0  0  0  0  0  0  0  0  0
   52.9941   -5.6629   -7.1068 H   0  0  0  0  0  0  0  0  0  0  0  0
   52.0711   -3.8217   -7.4116 C   0  0  0  0  0  0  0  0  0  0  0  0
   51.8900   -2.7582   -8.2541 C   0  0  0  0  0  0  0  0  0  0  0  0
   50.8026   -1.8786   -8.0749 C   0  0  0  0  0  0  0  0  0  0  0  0
   49.9166   -2.0885   -7.0476 C   0  0  0  0  0  0  0  0  0  0  0  0
   50.0684   -3.1459   -6.1838 C   0  0  0  0  0  0  0  0  0  0  0  0
   51.1448   -3.9942   -6.3821 C   0  0  0  0  0  0  0  0  0  0  0  0
   51.3435   -5.3389   -5.2945 S   0  0  0  0  0  0  0  0  0  0  0  0
   50.5774   -6.5416   -5.7072 O   0  0  0  0  0  0  0  0  0  0  0  0
   52.8046   -5.6563   -5.1643 O   0  0  0  0  0  0  0  0  0  0  0  0
   50.7843   -4.9175   -3.6509 C   0  0  0  0  0  0  0  0  0  0  0  0
   49.2481   -4.9298   -3.7424 C   0  0  0  0  0  0  0  0  0  0  0  0
   51.1790   -5.9165   -2.6181 C   0  0  0  0  0  0  0  0  0  0  0  0
 22 23  1  0  0  0
 23 16  1  0  0  0
 16 17  1  0  0  0
 17 18  1  0  0  0
 18 19  1  0  0  0
 19 20  1  0  0  0
 20 21  1  0  0  0
 19 10  1  0  0  0
 10 11  2  0  0  0
 11 12  1  0  0  0
 12 13  2  0  0  0
 13  8  1  0  0  0
  8  1  1  0  0  0
  1  2  2  0  0  0
  2  3  1  0  0  0
  3  4  2  0  0  0
  4  5  1  0  0  0
  4  6  1  0  0  0
  6 24  1  0  0  0
 24 26  1  0  0  0
 26 27  2  0  0  0
 27 28  1  0  0  0
 28 29  2  0  0  0
 29 30  1  0  0  0
 30 31  2  0  0  0
 31 32  1  0  0  0
 32 33  2  0  0  0
 32 34  2  0  0  0
 32 35  1  0  0  0
 35 36  1  0  0  0
 35 37  1  0  0  0
  6  7  2  0  0  0
 13 14  1  0  0  0
 14 15  2  0  0  0
 21 16  1  0  0  0
 15 10  1  0  0  0
  7  1  1  0  0  0
 31 26  1  0  0  0
  8  9  1  0  0  0
 24 25  1  0  0  0
M  END
> <minimizedAffinity>
-8.82419

> <CNNscore>
0.2975823581

> <CNNaffinity>
6.7673835754

> <CNN_VS>
2.0138540268

> <CNNaffinity_variance>
0.2242160290

$$$$
[H]c1nc(N([H])c2c([H])c([H])c(N3C([H])([H])C([H])([H])N(C([H])([H])C([H])([H])[H])C([H])([H])C3([H])[H])c([H])c2[H])nc(N([H])c2c([H])c([H])c([H])c([H])c2S(=O)(=O)C([H])(C([H])([H])[H])C([H])([H])[H])c1F


 37 40  0  0  0  0  0  0  0  0999 V2000
   58.8669   -5.7052   -9.0366 C   0  0  0  0  0  0  0  0  0  0  0  0
   58.5404   -5.3274  -10.2804 N   0  0  0  0  0  0  0  0  0  0  0  0
   57.4209   -4.6571  -10.5707 C   0  0  0  0  0  0  0  0  0  0  0  0
   56.5595   -4.3335   -9.5715 C   0  0  0  0  0  0  0  0  0  0  0  0
   55.4349   -3.6567   -9.8842 F   0  0  0  0  0  0  0  0  0  0  0  0
   56.8469   -4.7034   -8.2383 C   0  0  0  0  0  0  0  0  0  0  0  0
   57.9825   -5.3609   -8.0874 N   0  0  0  0  0  0  0  0  0  0  0  0
   60.0134   -6.4054   -8.6556 N   0  0  0  0  0  0  0  0  0  0  0  0
   60.2208   -6.4347   -7.6024 H   0  0  0  0  0  0  0  0  0  0  0  0
   62.7607   -8.5898  -11.0353 C   0  0  0  0  0  0  0  0  0  0  0  0
   62.8867   -7.2287  -10.9317 C   0  0  0  0  0  0  0  0  0  0  0  0
   61.9838   -6.4953  -10.1383 C   0  0  0  0  0  0  0  0  0  0  0  0
   60.9592   -7.0849   -9.4470 C   0  0  0  0  0  0  0  0  0  0  0  0
   60.8789   -8.4837   -9.5904 C   0  0  0  0  0  0  0  0  0  0  0  0
   61.7529   -9.2121  -10.3609 C   0  0  0  0  0  0  0  0  0  0  0  0
   65.2473  -10.8358  -13.6702 N   0  0  0  0  0  0  0  0  0  0  0  0
   65.2754  -11.0188  -12.2365 C   0  0  0  0  0  0  0  0  0  0  0  0
   63.8991  -10.7383  -11.6630 C   0  0  0  0  0  0  0  0  0  0  0  0
   63.6741   -9.2887  -11.8361 N   0  0  0  0  0  0  0  0  0  0  0  0
   64.4844   -8.7233  -12.8971 C   0  0  0  0  0  0  0  0  0  0  0  0
   64.4353   -9.7002  -14.0566 C   0  0  0  0  0  0  0  0  0  0  0  0
   63.6682  -11.7851  -15.2167 C   0  0  0  0  0  0  0  0  0  0  0  0
   64.8730  -12.0407  -14.3713 C   0  0  0  0  0  0  0  0  0  0  0  0
   55.9112   -4.3346   -7.2715 N   0  0  0  0  0  0  0  0  0  0  0  0
   56.1597   -3.4790   -6.6538 H   0  0  0  0  0  0  0  0  0  0  0  0
   54.6610   -4.8949   -6.9435 C   0  0  0  0  0  0  0  0  0  0  0  0
   53.6042   -4.8041   -7.8086 C   0  0  0  0  0  0  0  0  0  0  0  0
   52.3555   -5.3689   -7.4768 C   0  0  0  0  0  0  0  0  0  0  0  0
   52.1959   -6.0159   -6.2768 C   0  0  0  0  0  0  0  0  0  0  0  0
   53.2355   -6.1255   -5.3853 C   0  0  0  0  0  0  0  0  0  0  0  0
   54.4507   -5.5619   -5.7358 C   0  0  0  0  0  0  0  0  0  0  0  0
   55.7749   -5.6987   -4.6140 S   0  0  0  0  0  0  0  0  0  0  0  0
   56.9220   -6.4694   -5.1561 O   0  0  0  0  0  0  0  0  0  0  0  0
   56.2075   -4.3251   -4.1916 O   0  0  0  0  0  0  0  0  0  0  0  0
   55.2610   -6.5326   -3.1199 C   0  0  0  0  0  0  0  0  0  0  0  0
   55.8501   -7.9495   -3.2372 C   0  0  0  0  0  0  0  0  0  0  0  0
   55.8151   -5.9189   -1.8802 C   0  0  0  0  0  0  0  0  0  0  0  0
 22 23  1  0  0  0
 23 16  1  0  0  0
 16 17  1  0  0  0
 17 18  1  0  0  0
 18 19  1  0  0  0
 19 20  1  0  0  0
 20 21  1  0  0  0
 19 10  1  0  0  0
 10 11  2  0  0  0
 11 12  1  0  0  0
 12 13  2  0  0  0
 13  8  1  0  0  0
  8  1  1  0  0  0
  1  2  2  0  0  0
  2  3  1  0  0  0
  3  4  2  0  0  0
  4  5  1  0  0  0
  4  6  1  0  0  0
  6 24  1  0  0  0
 24 26  1  0  0  0
 26 27  2  0  0  0
 27 28  1  0  0  0
 28 29  2  0  0  0
 29 30  1  0  0  0
 30 31  2  0  0  0
 31 32  1  0  0  0
 32 33  2  0  0  0
 32 34  2  0  0  0
 32 35  1  0  0  0
 35 36  1  0  0  0
 35 37  1  0  0  0
  6  7  2  0  0  0
 13 14  1  0  0  0
 14 15  2  0  0  0
 21 16  1  0  0  0
 15 10  1  0  0  0
  7  1  1  0  0  0
 31 26  1  0  0  0
  8  9  1  0  0  0
 24 25  1  0  0  0
M  END
> <minimizedAffinity>
-7.36826

> <CNNscore>
0.2943558097

> <CNNaffinity>
6.0217132568

> <CNN_VS>
1.7725262642

> <CNNaffinity_variance>
0.1979459971

$$$$
